version 3
run General-0-20241119-06:48:17-6748
attr configname General
attr datetime 20241119-06:48:17
attr datetimef 20241119-064817
attr experiment General
attr inifile omnetpp.ini
attr iterationvars ""
attr iterationvarsd ""
attr iterationvarsf ""
attr measurement ""
attr network MulticastNetwork
attr processid 6748
attr repetition 0
attr replication #0
attr resultdir results
attr runnumber 0
attr seedset 0
config image-path ../../../images
config network MulticastNetwork
config total-stack 28MiB
config **.configurator.config "xmldoc(\"config.xml\")"
config **.configurator.assignDisjunctSubnetAddresses false
config **.configurator.addStaticRoutes false
config **.configurator.addSubnetRoutes false
config **.configurator.addDefaultRoutes false
config **.configurator.optimizeRoutes false
config **.configurator.dumpAddresses true
config **.configurator.dumpRoutes true
config **.host*.numApps 1
config **.app[*].typename UdpBasicApp
config **.app[0].localPort 100
config **.app[0].destPort 100
config **.app[0].messageLength "1250 bytes"
config **.app[0].sendInterval 0.9s
config **.app[0].destAddresses "\"172.0.0.1 172.0.0.2 172.0.0.3 172.0.1.1 172.0.2.2       225.0.0.1 225.0.0.2 225.0.0.3 225.0.1.1 225.0.1.2 225.0.2.1\""
config **.app[0].joinLocalMulticastGroups true
config **.ppp[*].queue.typename DropTailQueue
config **.ppp[*].queue.packetCapacity 10

par MulticastNetwork.host1.pppg$o[0].channel typename "\"inet.examples.inet.multicast.MulticastNetwork.ethernet\""
par MulticastNetwork.host1.pppg$o[0].channel disabled false
attr mutable ""
par MulticastNetwork.host1.pppg$o[0].channel delay 9.73505e-05s
attr mutable ""
attr unit s
par MulticastNetwork.host1.pppg$o[0].channel datarate 1e+07bps
attr mutable ""
attr unit bps
par MulticastNetwork.host1.pppg$o[0].channel ber 0
attr mutable ""
par MulticastNetwork.host1.pppg$o[0].channel per 0
attr mutable ""
par MulticastNetwork.router1.pppg$o[0].channel typename "\"inet.examples.inet.multicast.MulticastNetwork.ethernet\""
par MulticastNetwork.router1.pppg$o[0].channel disabled false
attr mutable ""
par MulticastNetwork.router1.pppg$o[0].channel delay 0.000194239s
attr mutable ""
attr unit s
par MulticastNetwork.router1.pppg$o[0].channel datarate 1e+07bps
attr mutable ""
attr unit bps
par MulticastNetwork.router1.pppg$o[0].channel ber 0
attr mutable ""
par MulticastNetwork.router1.pppg$o[0].channel per 0
attr mutable ""
par MulticastNetwork.host2.pppg$o[0].channel typename "\"inet.examples.inet.multicast.MulticastNetwork.ethernet\""
par MulticastNetwork.host2.pppg$o[0].channel disabled false
attr mutable ""
par MulticastNetwork.host2.pppg$o[0].channel delay 0.000192629s
attr mutable ""
attr unit s
par MulticastNetwork.host2.pppg$o[0].channel datarate 1e+07bps
attr mutable ""
attr unit bps
par MulticastNetwork.host2.pppg$o[0].channel ber 0
attr mutable ""
par MulticastNetwork.host2.pppg$o[0].channel per 0
attr mutable ""
par MulticastNetwork.router1.pppg$o[1].channel typename "\"inet.examples.inet.multicast.MulticastNetwork.ethernet\""
par MulticastNetwork.router1.pppg$o[1].channel disabled false
attr mutable ""
par MulticastNetwork.router1.pppg$o[1].channel delay 0.000185994s
attr mutable ""
attr unit s
par MulticastNetwork.router1.pppg$o[1].channel datarate 1e+07bps
attr mutable ""
attr unit bps
par MulticastNetwork.router1.pppg$o[1].channel ber 0
attr mutable ""
par MulticastNetwork.router1.pppg$o[1].channel per 0
attr mutable ""
par MulticastNetwork.host2.pppg$o[1].channel typename "\"inet.examples.inet.multicast.MulticastNetwork.dialup\""
par MulticastNetwork.host2.pppg$o[1].channel disabled false
attr mutable ""
par MulticastNetwork.host2.pppg$o[1].channel delay 0.00265181s
attr mutable ""
attr unit s
par MulticastNetwork.host2.pppg$o[1].channel datarate 64000bps
attr mutable ""
attr unit bps
par MulticastNetwork.host2.pppg$o[1].channel ber 0
attr mutable ""
par MulticastNetwork.host2.pppg$o[1].channel per 0
attr mutable ""
par MulticastNetwork.host3.pppg$o[1].channel typename "\"inet.examples.inet.multicast.MulticastNetwork.dialup\""
par MulticastNetwork.host3.pppg$o[1].channel disabled false
attr mutable ""
par MulticastNetwork.host3.pppg$o[1].channel delay 0.00206112s
attr mutable ""
attr unit s
par MulticastNetwork.host3.pppg$o[1].channel datarate 64000bps
attr mutable ""
attr unit bps
par MulticastNetwork.host3.pppg$o[1].channel ber 0
attr mutable ""
par MulticastNetwork.host3.pppg$o[1].channel per 0
attr mutable ""
par MulticastNetwork.host3.pppg$o[0].channel typename "\"inet.examples.inet.multicast.MulticastNetwork.ethernet\""
par MulticastNetwork.host3.pppg$o[0].channel disabled false
attr mutable ""
par MulticastNetwork.host3.pppg$o[0].channel delay 0.000134216s
attr mutable ""
attr unit s
par MulticastNetwork.host3.pppg$o[0].channel datarate 1e+07bps
attr mutable ""
attr unit bps
par MulticastNetwork.host3.pppg$o[0].channel ber 0
attr mutable ""
par MulticastNetwork.host3.pppg$o[0].channel per 0
attr mutable ""
par MulticastNetwork.router1.pppg$o[2].channel typename "\"inet.examples.inet.multicast.MulticastNetwork.ethernet\""
par MulticastNetwork.router1.pppg$o[2].channel disabled false
attr mutable ""
par MulticastNetwork.router1.pppg$o[2].channel delay 0.000248816s
attr mutable ""
attr unit s
par MulticastNetwork.router1.pppg$o[2].channel datarate 1e+07bps
attr mutable ""
attr unit bps
par MulticastNetwork.router1.pppg$o[2].channel ber 0
attr mutable ""
par MulticastNetwork.router1.pppg$o[2].channel per 0
attr mutable ""
par MulticastNetwork.host4.pppg$o[0].channel typename "\"inet.examples.inet.multicast.MulticastNetwork.ethernet\""
par MulticastNetwork.host4.pppg$o[0].channel disabled false
attr mutable ""
par MulticastNetwork.host4.pppg$o[0].channel delay 0.000131735s
attr mutable ""
attr unit s
par MulticastNetwork.host4.pppg$o[0].channel datarate 1e+07bps
attr mutable ""
attr unit bps
par MulticastNetwork.host4.pppg$o[0].channel ber 0
attr mutable ""
par MulticastNetwork.host4.pppg$o[0].channel per 0
attr mutable ""
par MulticastNetwork.router3.pppg$o[0].channel typename "\"inet.examples.inet.multicast.MulticastNetwork.ethernet\""
par MulticastNetwork.router3.pppg$o[0].channel disabled false
attr mutable ""
par MulticastNetwork.router3.pppg$o[0].channel delay 0.00010131s
attr mutable ""
attr unit s
par MulticastNetwork.router3.pppg$o[0].channel datarate 1e+07bps
attr mutable ""
attr unit bps
par MulticastNetwork.router3.pppg$o[0].channel ber 0
attr mutable ""
par MulticastNetwork.router3.pppg$o[0].channel per 0
attr mutable ""
par MulticastNetwork.host5.pppg$o[0].channel typename "\"inet.examples.inet.multicast.MulticastNetwork.dialup\""
par MulticastNetwork.host5.pppg$o[0].channel disabled false
attr mutable ""
par MulticastNetwork.host5.pppg$o[0].channel delay 0.00521405s
attr mutable ""
attr unit s
par MulticastNetwork.host5.pppg$o[0].channel datarate 64000bps
attr mutable ""
attr unit bps
par MulticastNetwork.host5.pppg$o[0].channel ber 0
attr mutable ""
par MulticastNetwork.host5.pppg$o[0].channel per 0
attr mutable ""
par MulticastNetwork.router4.pppg$o[0].channel typename "\"inet.examples.inet.multicast.MulticastNetwork.dialup\""
par MulticastNetwork.router4.pppg$o[0].channel disabled false
attr mutable ""
par MulticastNetwork.router4.pppg$o[0].channel delay 0.00180899s
attr mutable ""
attr unit s
par MulticastNetwork.router4.pppg$o[0].channel datarate 64000bps
attr mutable ""
attr unit bps
par MulticastNetwork.router4.pppg$o[0].channel ber 0
attr mutable ""
par MulticastNetwork.router4.pppg$o[0].channel per 0
attr mutable ""
par MulticastNetwork.host6.pppg$o[0].channel typename "\"inet.examples.inet.multicast.MulticastNetwork.dialup\""
par MulticastNetwork.host6.pppg$o[0].channel disabled false
attr mutable ""
par MulticastNetwork.host6.pppg$o[0].channel delay 0.00217721s
attr mutable ""
attr unit s
par MulticastNetwork.host6.pppg$o[0].channel datarate 64000bps
attr mutable ""
attr unit bps
par MulticastNetwork.host6.pppg$o[0].channel ber 0
attr mutable ""
par MulticastNetwork.host6.pppg$o[0].channel per 0
attr mutable ""
par MulticastNetwork.router4.pppg$o[1].channel typename "\"inet.examples.inet.multicast.MulticastNetwork.dialup\""
par MulticastNetwork.router4.pppg$o[1].channel disabled false
attr mutable ""
par MulticastNetwork.router4.pppg$o[1].channel delay 0.00611262s
attr mutable ""
attr unit s
par MulticastNetwork.router4.pppg$o[1].channel datarate 64000bps
attr mutable ""
attr unit bps
par MulticastNetwork.router4.pppg$o[1].channel ber 0
attr mutable ""
par MulticastNetwork.router4.pppg$o[1].channel per 0
attr mutable ""
par MulticastNetwork.router2.pppg$o[0].channel typename "\"inet.examples.inet.multicast.MulticastNetwork.fiberrouter\""
par MulticastNetwork.router2.pppg$o[0].channel disabled false
attr mutable ""
par MulticastNetwork.router2.pppg$o[0].channel delay 9.79963e-07s
attr mutable ""
attr unit s
par MulticastNetwork.router2.pppg$o[0].channel datarate 5.12e+08bps
attr mutable ""
attr unit bps
par MulticastNetwork.router2.pppg$o[0].channel ber 0
attr mutable ""
par MulticastNetwork.router2.pppg$o[0].channel per 0
attr mutable ""
par MulticastNetwork.router1.pppg$o[3].channel typename "\"inet.examples.inet.multicast.MulticastNetwork.fiberrouter\""
par MulticastNetwork.router1.pppg$o[3].channel disabled false
attr mutable ""
par MulticastNetwork.router1.pppg$o[3].channel delay 9.74507e-07s
attr mutable ""
attr unit s
par MulticastNetwork.router1.pppg$o[3].channel datarate 5.12e+08bps
attr mutable ""
attr unit bps
par MulticastNetwork.router1.pppg$o[3].channel ber 0
attr mutable ""
par MulticastNetwork.router1.pppg$o[3].channel per 0
attr mutable ""
par MulticastNetwork.router2.pppg$o[1].channel typename "\"inet.examples.inet.multicast.MulticastNetwork.fiberrouter\""
par MulticastNetwork.router2.pppg$o[1].channel disabled false
attr mutable ""
par MulticastNetwork.router2.pppg$o[1].channel delay 9.86328e-07s
attr mutable ""
attr unit s
par MulticastNetwork.router2.pppg$o[1].channel datarate 5.12e+08bps
attr mutable ""
attr unit bps
par MulticastNetwork.router2.pppg$o[1].channel ber 0
attr mutable ""
par MulticastNetwork.router2.pppg$o[1].channel per 0
attr mutable ""
par MulticastNetwork.router3.pppg$o[1].channel typename "\"inet.examples.inet.multicast.MulticastNetwork.fiberrouter\""
par MulticastNetwork.router3.pppg$o[1].channel disabled false
attr mutable ""
par MulticastNetwork.router3.pppg$o[1].channel delay 1.18227e-06s
attr mutable ""
attr unit s
par MulticastNetwork.router3.pppg$o[1].channel datarate 5.12e+08bps
attr mutable ""
attr unit bps
par MulticastNetwork.router3.pppg$o[1].channel ber 0
attr mutable ""
par MulticastNetwork.router3.pppg$o[1].channel per 0
attr mutable ""
par MulticastNetwork.router2.pppg$o[2].channel typename "\"inet.examples.inet.multicast.MulticastNetwork.fiberrouter\""
par MulticastNetwork.router2.pppg$o[2].channel disabled false
attr mutable ""
par MulticastNetwork.router2.pppg$o[2].channel delay 1.11032e-06s
attr mutable ""
attr unit s
par MulticastNetwork.router2.pppg$o[2].channel datarate 5.12e+08bps
attr mutable ""
attr unit bps
par MulticastNetwork.router2.pppg$o[2].channel ber 0
attr mutable ""
par MulticastNetwork.router2.pppg$o[2].channel per 0
attr mutable ""
par MulticastNetwork.router4.pppg$o[2].channel typename "\"inet.examples.inet.multicast.MulticastNetwork.fiberrouter\""
par MulticastNetwork.router4.pppg$o[2].channel disabled false
attr mutable ""
par MulticastNetwork.router4.pppg$o[2].channel delay 1.13836e-06s
attr mutable ""
attr unit s
par MulticastNetwork.router4.pppg$o[2].channel datarate 5.12e+08bps
attr mutable ""
attr unit bps
par MulticastNetwork.router4.pppg$o[2].channel ber 0
attr mutable ""
par MulticastNetwork.router4.pppg$o[2].channel per 0
attr mutable ""
par MulticastNetwork.host1.pppg$i[0].channel typename "\"ned.IdealChannel\""
par MulticastNetwork.host1.ppp[0].phys$o.channel typename "\"ned.IdealChannel\""
par MulticastNetwork.host1.interfaceTable typename "\"inet.networklayer.common.InterfaceTable\""
par MulticastNetwork.host1.interfaceTable displayAddresses false
par MulticastNetwork.host1.cb typename "\"inet.common.MessageDispatcher\""
par MulticastNetwork.host1.cb displayStringTextFormat "\"processed %p pk (%l)\""
par MulticastNetwork.host1.cb forwardServiceRegistration true
par MulticastNetwork.host1.cb forwardProtocolRegistration true
par MulticastNetwork.host1.bl typename "\"inet.common.MessageDispatcher\""
par MulticastNetwork.host1.bl displayStringTextFormat "\"processed %p pk (%l)\""
par MulticastNetwork.host1.bl forwardServiceRegistration true
par MulticastNetwork.host1.bl forwardProtocolRegistration true
par MulticastNetwork.host1.li typename "\"inet.common.MessageDispatcher\""
par MulticastNetwork.host1.li displayStringTextFormat "\"processed %p pk (%l)\""
par MulticastNetwork.host1.li forwardServiceRegistration true
par MulticastNetwork.host1.li forwardProtocolRegistration true
par MulticastNetwork.host1.lo[0].upperLayerIn.channel typename "\"ned.IdealChannel\""
par MulticastNetwork.host1.lo[0].lo.upperLayerOut.channel typename "\"ned.IdealChannel\""
par MulticastNetwork.host1.lo[0].lo typename "\"inet.linklayer.loopback.Loopback\""
par MulticastNetwork.host1.lo[0].lo interfaceTableModule "\"MulticastNetwork.host1.interfaceTable\""
par MulticastNetwork.host1.lo[0].lo mtu 4470B
attr unit B
scalar MulticastNetwork.host1.lo[0].lo rcvdPkFromHl:count 1
attr interpolationmode none
attr recordingmode count
attr source packetReceivedFromUpper
attr title "packets received from higher layer, count"
scalar MulticastNetwork.host1.lo[0].lo rcvdPkFromHl:sum(packetBytes) 1278
attr interpolationmode none
attr recordingmode sum(packetBytes)
attr source packetReceivedFromUpper
attr title "packets received from higher layer, sum(packetBytes)"
scalar MulticastNetwork.host1.lo[0].lo passedUpPk:count 1
attr interpolationmode none
attr recordingmode count
attr source packetSentToUpper
attr title "packets passed to higher layer, count"
scalar MulticastNetwork.host1.lo[0].lo passedUpPk:sum(packetBytes) 1278
attr interpolationmode none
attr recordingmode sum(packetBytes)
attr source packetSentToUpper
attr title "packets passed to higher layer, sum(packetBytes)"
par MulticastNetwork.host1.lo[0] typename "\"inet.linklayer.loopback.LoopbackInterface\""
par MulticastNetwork.host1.lo[0] displayStringTextFormat "\"%a (%i)\\n%m\""
par MulticastNetwork.host1.lo[0] recordPcap false
par MulticastNetwork.host1.lo[0] numPcapRecorders 0
par MulticastNetwork.host1.lo[0] interfaceTableModule "\"MulticastNetwork.host1.interfaceTable\""
scalar MulticastNetwork.host1.lo[0] packetDropInterfaceDown:count 0
attr interpolationmode none
attr recordingmode count
attr source packetDropReasonIsInterfaceDown(packetDropped)
attr title "packet drops: interface down, count"
scalar MulticastNetwork.host1.lo[0] packetDropInterfaceDown:sum(packetBytes) 0
attr interpolationmode none
attr recordingmode sum(packetBytes)
attr source packetDropReasonIsInterfaceDown(packetDropped)
attr title "packet drops: interface down, sum(packetBytes)"
scalar MulticastNetwork.host1.lo[0] packetDropNoCarrier:count 0
attr interpolationmode none
attr recordingmode count
attr source packetDropReasonIsNoCarrier(packetDropped)
attr title "packet drops: no carrier, count"
scalar MulticastNetwork.host1.lo[0] packetDropNoCarrier:sum(packetBytes) 0
attr interpolationmode none
attr recordingmode sum(packetBytes)
attr source packetDropReasonIsNoCarrier(packetDropped)
attr title "packet drops: no carrier, sum(packetBytes)"
par MulticastNetwork.host1.ppp[0].phys$i.channel typename "\"ned.IdealChannel\""
par MulticastNetwork.host1.ppp[0].ppp.phys$o.channel typename "\"ned.IdealChannel\""
par MulticastNetwork.host1.ppp[0].ppp.upperLayerOut.channel typename "\"ned.IdealChannel\""
par MulticastNetwork.host1.ppp[0].upperLayerIn.channel typename "\"ned.IdealChannel\""
par MulticastNetwork.host1.ppp[0].queue typename "\"inet.queueing.queue.DropTailQueue\""
par MulticastNetwork.host1.ppp[0].queue displayStringTextFormat "\"contains %p pk (%l) pushed %u\\npulled %o removed %r dropped %d\""
par MulticastNetwork.host1.ppp[0].queue packetCapacity 10
par MulticastNetwork.host1.ppp[0].queue dataCapacity -1b
attr unit b
par MulticastNetwork.host1.ppp[0].queue dropperClass "\"inet::queueing::PacketAtCollectionEndDropper\""
par MulticastNetwork.host1.ppp[0].queue comparatorClass "\"\""
par MulticastNetwork.host1.ppp[0].queue bufferModule "\"\""
scalar MulticastNetwork.host1.ppp[0].queue queueLength:last 0
attr autoWarmupFilter false
attr interpolationmode sample-hold
attr recordingmode last
attr source "warmup(atomic(constant0(packetPushEnded) + count(packetPushStarted) - count(packetPulled) - count(packetRemoved) - count(packetDropped)))"
attr title "queue length, last"
attr unit pk
scalar MulticastNetwork.host1.ppp[0].queue queueLength:max 2
attr autoWarmupFilter false
attr interpolationmode sample-hold
attr recordingmode max
attr source "warmup(atomic(constant0(packetPushEnded) + count(packetPushStarted) - count(packetPulled) - count(packetRemoved) - count(packetDropped)))"
attr title "queue length, max"
attr unit pk
scalar MulticastNetwork.host1.ppp[0].queue queueLength:timeavg 4.7612904464284e-05
attr autoWarmupFilter false
attr interpolationmode sample-hold
attr recordingmode timeavg
attr source "warmup(atomic(constant0(packetPushEnded) + count(packetPushStarted) - count(packetPulled) - count(packetRemoved) - count(packetDropped)))"
attr title "queue length, timeavg"
attr unit pk
scalar MulticastNetwork.host1.ppp[0].queue queueBitLength:last 0
attr autoWarmupFilter false
attr interpolationmode sample-hold
attr recordingmode last
attr source "warmup(atomic(constant0(packetPushEnded) + sum(packetLength(packetPushStarted)) - sum(packetLength(packetPulled)) - sum(packetLength(packetRemoved)) - sum(packetLength(packetDropped))))"
attr title "queue bit length, last"
attr unit b
scalar MulticastNetwork.host1.ppp[0].queue queueBitLength:max 512
attr autoWarmupFilter false
attr interpolationmode sample-hold
attr recordingmode max
attr source "warmup(atomic(constant0(packetPushEnded) + sum(packetLength(packetPushStarted)) - sum(packetLength(packetPulled)) - sum(packetLength(packetRemoved)) - sum(packetLength(packetDropped))))"
attr title "queue bit length, max"
attr unit b
scalar MulticastNetwork.host1.ppp[0].queue queueBitLength:timeavg 0.012188903542857
attr autoWarmupFilter false
attr interpolationmode sample-hold
attr recordingmode timeavg
attr source "warmup(atomic(constant0(packetPushEnded) + sum(packetLength(packetPushStarted)) - sum(packetLength(packetPulled)) - sum(packetLength(packetRemoved)) - sum(packetLength(packetDropped))))"
attr title "queue bit length, timeavg"
attr unit b
statistic MulticastNetwork.host1.ppp[0].queue queueingTime:histogram
field count 4
field mean 2.34e-05
field stddev 2.9871725761998e-05
field min 0
field max 6.24e-05
field sum 9.36e-05
field sqrsum 4.8672e-09
attr interpolationmode none
attr recordingmode histogram
attr source queueingTime(packetPulled)
attr title "queueing times"
attr unit s
bin	-inf	0
bin	0	2
bin	1e-06	0
bin	2e-06	0
bin	3e-06	0
bin	4e-06	0
bin	5e-06	0
bin	6e-06	0
bin	7e-06	0
bin	8e-06	0
bin	9e-06	0
bin	1e-05	0
bin	1.1e-05	0
bin	1.2e-05	0
bin	1.3e-05	0
bin	1.4e-05	0
bin	1.5e-05	0
bin	1.6e-05	0
bin	1.7e-05	0
bin	1.8e-05	0
bin	1.9e-05	0
bin	2e-05	0
bin	2.1e-05	0
bin	2.2e-05	0
bin	2.3e-05	0
bin	2.4e-05	0
bin	2.5e-05	0
bin	2.6e-05	0
bin	2.7e-05	0
bin	2.8e-05	0
bin	2.9e-05	0
bin	3e-05	0
bin	3.1e-05	1
bin	3.2e-05	0
bin	3.3e-05	0
bin	3.4e-05	0
bin	3.5e-05	0
bin	3.6e-05	0
bin	3.7e-05	0
bin	3.8e-05	0
bin	3.9e-05	0
bin	4e-05	0
bin	4.1e-05	0
bin	4.2e-05	0
bin	4.3e-05	0
bin	4.4e-05	0
bin	4.5e-05	0
bin	4.6e-05	0
bin	4.7e-05	0
bin	4.8e-05	0
bin	4.9e-05	0
bin	5e-05	0
bin	5.1e-05	0
bin	5.2e-05	0
bin	5.3e-05	0
bin	5.4e-05	0
bin	5.5e-05	0
bin	5.6e-05	0
bin	5.7e-05	0
bin	5.8e-05	0
bin	5.9e-05	0
bin	6e-05	0
bin	6.1e-05	0
bin	6.2e-05	1
bin	6.3e-05	0
bin	6.4e-05	0
bin	6.5e-05	0
bin	6.6e-05	0
bin	6.7e-05	0
bin	6.8e-05	0
bin	6.9e-05	0
bin	7e-05	0
bin	7.1e-05	0
bin	7.2e-05	0
bin	7.3e-05	0
bin	7.4e-05	0
bin	7.5e-05	0
bin	7.6e-05	0
bin	7.7e-05	0
bin	7.8e-05	0
scalar MulticastNetwork.host1.ppp[0].queue outgoingPackets:count 4
attr recordingmode count
attr source packetPulled
attr title "outgoing packets, count"
attr unit pk
scalar MulticastNetwork.host1.ppp[0].queue outgoingPacketLengths:sum 10992
attr interpolationmode none
attr recordingmode sum
attr source packetLength(packetPulled)
attr title "outgoing packet lengths, sum"
attr unit b
statistic MulticastNetwork.host1.ppp[0].queue outgoingPacketLengths:histogram
field count 4
field mean 2748
field stddev 4984
field min 256
field max 10224
field sum 10992
field sqrsum 104726784
attr interpolationmode none
attr recordingmode histogram
attr source packetLength(packetPulled)
attr title "outgoing packet lengths"
attr unit b
bin	-inf	0
bin	0	0
bin	200	3
bin	400	0
bin	600	0
bin	800	0
bin	1000	0
bin	1200	0
bin	1400	0
bin	1600	0
bin	1800	0
bin	2000	0
bin	2200	0
bin	2400	0
bin	2600	0
bin	2800	0
bin	3000	0
bin	3200	0
bin	3400	0
bin	3600	0
bin	3800	0
bin	4000	0
bin	4200	0
bin	4400	0
bin	4600	0
bin	4800	0
bin	5000	0
bin	5200	0
bin	5400	0
bin	5600	0
bin	5800	0
bin	6000	0
bin	6200	0
bin	6400	0
bin	6600	0
bin	6800	0
bin	7000	0
bin	7200	0
bin	7400	0
bin	7600	0
bin	7800	0
bin	8000	0
bin	8200	0
bin	8400	0
bin	8600	0
bin	8800	0
bin	9000	0
bin	9200	0
bin	9400	0
bin	9600	0
bin	9800	0
bin	10000	0
bin	10200	1
bin	10400	0
bin	10600	0
bin	10800	0
bin	11000	0
bin	11200	0
bin	11400	0
bin	11600	0
bin	11800	0
bin	12000	0
bin	12200	0
bin	12400	0
bin	12600	0
bin	12800	0
statistic MulticastNetwork.host1.ppp[0].queue flowQueueingTime:histogram
field count 0
field mean -nan
field stddev nan
field min nan
field max nan
field sum 0
field sqrsum 0
attr interpolationmode none
attr recordingmode histogram
attr source queueingTime(demuxFlow(packetPulled))
attr title "flow queueing times"
attr unit s
bin	-inf	0
bin	0	0
bin	1	0
scalar MulticastNetwork.host1.ppp[0].queue incomingPackets:count 4
attr recordingmode count
attr source packetPushStarted
attr title "incoming packets, count"
attr unit pk
scalar MulticastNetwork.host1.ppp[0].queue incomingPacketLengths:sum 10992
attr interpolationmode none
attr recordingmode sum
attr source packetLength(packetPushStarted)
attr title "incoming packet lengths, sum"
attr unit b
statistic MulticastNetwork.host1.ppp[0].queue incomingPacketLengths:histogram
field count 4
field mean 2748
field stddev 4984
field min 256
field max 10224
field sum 10992
field sqrsum 104726784
attr interpolationmode none
attr recordingmode histogram
attr source packetLength(packetPushStarted)
attr title "incoming packet lengths"
attr unit b
bin	-inf	0
bin	0	0
bin	200	3
bin	400	0
bin	600	0
bin	800	0
bin	1000	0
bin	1200	0
bin	1400	0
bin	1600	0
bin	1800	0
bin	2000	0
bin	2200	0
bin	2400	0
bin	2600	0
bin	2800	0
bin	3000	0
bin	3200	0
bin	3400	0
bin	3600	0
bin	3800	0
bin	4000	0
bin	4200	0
bin	4400	0
bin	4600	0
bin	4800	0
bin	5000	0
bin	5200	0
bin	5400	0
bin	5600	0
bin	5800	0
bin	6000	0
bin	6200	0
bin	6400	0
bin	6600	0
bin	6800	0
bin	7000	0
bin	7200	0
bin	7400	0
bin	7600	0
bin	7800	0
bin	8000	0
bin	8200	0
bin	8400	0
bin	8600	0
bin	8800	0
bin	9000	0
bin	9200	0
bin	9400	0
bin	9600	0
bin	9800	0
bin	10000	0
bin	10200	1
bin	10400	0
bin	10600	0
bin	10800	0
bin	11000	0
bin	11200	0
bin	11400	0
bin	11600	0
bin	11800	0
bin	12000	0
bin	12200	0
bin	12400	0
bin	12600	0
bin	12800	0
scalar MulticastNetwork.host1.ppp[0].queue droppedPacketsQueueOverflow:count 0
attr interpolationmode none
attr recordingmode count
attr source packetDropReasonIsQueueOverflow(packetDropped)
attr title "dropped packets: queue overflow, count"
attr unit pk
scalar MulticastNetwork.host1.ppp[0].queue droppedPacketLengthsQueueOverflow:sum 0
attr interpolationmode none
attr recordingmode sum
attr source packetLength(packetDropReasonIsQueueOverflow(packetDropped))
attr title "dropped packet lengths: queue overflow, sum"
attr unit b
par MulticastNetwork.host1.ppp[0].ppp typename "\"inet.linklayer.ppp.Ppp\""
par MulticastNetwork.host1.ppp[0].ppp interfaceTableModule "\"MulticastNetwork.host1.interfaceTable\""
par MulticastNetwork.host1.ppp[0].ppp displayStringTextFormat "\"rate: %b\\nsent: %s, rcvd: %r\\nqueue: %q, drop: %d\""
par MulticastNetwork.host1.ppp[0].ppp sendRawBytes false
par MulticastNetwork.host1.ppp[0].ppp mtu 4470B
attr unit B
par MulticastNetwork.host1.ppp[0].ppp stopOperationExtraTime -1s
attr unit s
par MulticastNetwork.host1.ppp[0].ppp stopOperationTimeout 2s
attr unit s
scalar MulticastNetwork.host1.ppp[0].ppp transmissionState:timeavg 0.0005705409577686
attr interpolationmode sample-hold
attr recordingmode timeavg
attr source transmissionStateChanged
attr title "tx state, timeavg"
scalar MulticastNetwork.host1.ppp[0].ppp rxPkOk:count 3
attr interpolationmode none
attr recordingmode count
attr source rxPkOk
attr title "packets received OK, count"
scalar MulticastNetwork.host1.ppp[0].ppp rxPkOk:sum(packetBytes) 2605
attr interpolationmode none
attr recordingmode sum(packetBytes)
attr source rxPkOk
attr title "packets received OK, sum(packetBytes)"
scalar MulticastNetwork.host1.ppp[0].ppp txPk:count 4
attr interpolationmode none
attr recordingmode count
attr source packetSentToLower
attr title "packets transmitted, count"
scalar MulticastNetwork.host1.ppp[0].ppp txPk:sum(packetBytes) 1402
attr interpolationmode none
attr recordingmode sum(packetBytes)
attr source packetSentToLower
attr title "packets transmitted, sum(packetBytes)"
scalar MulticastNetwork.host1.ppp[0].ppp rcvdPkFromHl:count 4
attr interpolationmode none
attr recordingmode count
attr source packetReceivedFromUpper
attr title "packets received from higher layer, count"
scalar MulticastNetwork.host1.ppp[0].ppp rcvdPkFromHl:sum(packetBytes) 1374
attr interpolationmode none
attr recordingmode sum(packetBytes)
attr source packetReceivedFromUpper
attr title "packets received from higher layer, sum(packetBytes)"
scalar MulticastNetwork.host1.ppp[0].ppp passedUpPk:count 3
attr interpolationmode none
attr recordingmode count
attr source packetSentToUpper
attr title "packets passed to higher layer, count"
scalar MulticastNetwork.host1.ppp[0].ppp passedUpPk:sum(packetBytes) 2584
attr interpolationmode none
attr recordingmode sum(packetBytes)
attr source packetSentToUpper
attr title "packets passed to higher layer, sum(packetBytes)"
scalar MulticastNetwork.host1.ppp[0].ppp packetDropIncorrectlyReceived:count 0
attr interpolationmode none
attr recordingmode count
attr source packetDropReasonIsIncorrectlyReceived(packetDropped)
attr title "packet drop: incorrectly received, count"
scalar MulticastNetwork.host1.ppp[0].ppp packetDropIncorrectlyReceived:sum(packetBytes) 0
attr interpolationmode none
attr recordingmode sum(packetBytes)
attr source packetDropReasonIsIncorrectlyReceived(packetDropped)
attr title "packet drop: incorrectly received, sum(packetBytes)"
scalar MulticastNetwork.host1.ppp[0].ppp packetDropInterfaceDown:count 0
attr interpolationmode none
attr recordingmode count
attr source packetDropReasonIsInterfaceDown(packetDropped)
attr title "packet drop: interface down, count"
scalar MulticastNetwork.host1.ppp[0].ppp packetDropInterfaceDown:sum(packetBytes) 0
attr interpolationmode none
attr recordingmode sum(packetBytes)
attr source packetDropReasonIsInterfaceDown(packetDropped)
attr title "packet drop: interface down, sum(packetBytes)"
par MulticastNetwork.host1.ppp[0] typename "\"inet.linklayer.ppp.PppInterface\""
par MulticastNetwork.host1.ppp[0] displayStringTextFormat "\"%a (%i)\\n%m\""
par MulticastNetwork.host1.ppp[0] recordPcap false
par MulticastNetwork.host1.ppp[0] numPcapRecorders 0
par MulticastNetwork.host1.ppp[0] interfaceTableModule "\"MulticastNetwork.host1.interfaceTable\""
scalar MulticastNetwork.host1.ppp[0] packetDropInterfaceDown:count 0
attr interpolationmode none
attr recordingmode count
attr source packetDropReasonIsInterfaceDown(packetDropped)
attr title "packet drops: interface down, count"
scalar MulticastNetwork.host1.ppp[0] packetDropInterfaceDown:sum(packetBytes) 0
attr interpolationmode none
attr recordingmode sum(packetBytes)
attr source packetDropReasonIsInterfaceDown(packetDropped)
attr title "packet drops: interface down, sum(packetBytes)"
scalar MulticastNetwork.host1.ppp[0] packetDropNoCarrier:count 0
attr interpolationmode none
attr recordingmode count
attr source packetDropReasonIsNoCarrier(packetDropped)
attr title "packet drops: no carrier, count"
scalar MulticastNetwork.host1.ppp[0] packetDropNoCarrier:sum(packetBytes) 0
attr interpolationmode none
attr recordingmode sum(packetBytes)
attr source packetDropReasonIsNoCarrier(packetDropped)
attr title "packet drops: no carrier, sum(packetBytes)"
par MulticastNetwork.host1.ipv4.transportIn.channel typename "\"ned.IdealChannel\""
par MulticastNetwork.host1.ipv4.up.out[0].channel typename "\"ned.IdealChannel\""
par MulticastNetwork.host1.ipv4.lp.out[2].channel typename "\"ned.IdealChannel\""
par MulticastNetwork.host1.ipv4.ifIn.channel typename "\"ned.IdealChannel\""
par MulticastNetwork.host1.ipv4.configurator typename "\"inet.networklayer.configurator.ipv4.Ipv4NodeConfigurator\""
par MulticastNetwork.host1.ipv4.configurator interfaceTableModule "\"MulticastNetwork.host1.interfaceTable\""
par MulticastNetwork.host1.ipv4.configurator routingTableModule "\"MulticastNetwork.host1.ipv4.routingTable\""
par MulticastNetwork.host1.ipv4.configurator networkConfiguratorModule "\"configurator\""
par MulticastNetwork.host1.ipv4.configurator configureRoutingTable true
par MulticastNetwork.host1.ipv4.routingTable typename "\"inet.networklayer.ipv4.Ipv4RoutingTable\""
par MulticastNetwork.host1.ipv4.routingTable interfaceTableModule "\"MulticastNetwork.host1.interfaceTable\""
par MulticastNetwork.host1.ipv4.routingTable routerId "\"auto\""
par MulticastNetwork.host1.ipv4.routingTable netmaskRoutes "\"*\""
par MulticastNetwork.host1.ipv4.routingTable forwarding false
par MulticastNetwork.host1.ipv4.routingTable multicastForwarding false
par MulticastNetwork.host1.ipv4.routingTable useAdminDist false
par MulticastNetwork.host1.ipv4.routingTable routingFile "\"\""
par MulticastNetwork.host1.ipv4.natTable typename "\"inet.networklayer.ipv4.Ipv4NatTable\""
par MulticastNetwork.host1.ipv4.natTable networkProtocolModule "\"^.ip\""
par MulticastNetwork.host1.ipv4.natTable config "<config/> at content:1"
par MulticastNetwork.host1.ipv4.up typename "\"inet.common.MessageDispatcher\""
par MulticastNetwork.host1.ipv4.up displayStringTextFormat "\"processed %p pk (%l)\""
par MulticastNetwork.host1.ipv4.up forwardServiceRegistration true
par MulticastNetwork.host1.ipv4.up forwardProtocolRegistration true
par MulticastNetwork.host1.ipv4.igmp typename "\"inet.networklayer.ipv4.Igmpv2\""
par MulticastNetwork.host1.ipv4.igmp interfaceTableModule "\"MulticastNetwork.host1.interfaceTable\""
par MulticastNetwork.host1.ipv4.igmp routingTableModule "\"MulticastNetwork.host1.ipv4.routingTable\""
par MulticastNetwork.host1.ipv4.igmp crcMode "\"declared\""
attr enum declared,computed
par MulticastNetwork.host1.ipv4.igmp enabled true
par MulticastNetwork.host1.ipv4.igmp robustnessVariable 2
par MulticastNetwork.host1.ipv4.igmp queryInterval 125s
attr unit s
par MulticastNetwork.host1.ipv4.igmp queryResponseInterval 10s
attr unit s
par MulticastNetwork.host1.ipv4.igmp groupMembershipInterval 260s
attr unit s
par MulticastNetwork.host1.ipv4.igmp otherQuerierPresentInterval 255s
attr unit s
par MulticastNetwork.host1.ipv4.igmp startupQueryInterval 31.25s
attr unit s
par MulticastNetwork.host1.ipv4.igmp startupQueryCount 2
par MulticastNetwork.host1.ipv4.igmp lastMemberQueryInterval 1s
attr unit s
par MulticastNetwork.host1.ipv4.igmp lastMemberQueryCount 2
par MulticastNetwork.host1.ipv4.igmp unsolicitedReportInterval 10s
attr unit s
par MulticastNetwork.host1.ipv4.icmp typename "\"inet.networklayer.ipv4.Icmp\""
par MulticastNetwork.host1.ipv4.icmp interfaceTableModule "\"MulticastNetwork.host1.interfaceTable\""
par MulticastNetwork.host1.ipv4.icmp routingTableModule "\"MulticastNetwork.host1.ipv4.routingTable\""
par MulticastNetwork.host1.ipv4.icmp crcMode "\"declared\""
attr enum declared,computed
attr mutable ""
par MulticastNetwork.host1.ipv4.icmp quoteLength 8B
attr mutable ""
attr unit B
par MulticastNetwork.host1.ipv4.mp typename "\"inet.common.MessageDispatcher\""
par MulticastNetwork.host1.ipv4.mp displayStringTextFormat "\"processed %p pk (%l)\""
par MulticastNetwork.host1.ipv4.mp forwardServiceRegistration true
par MulticastNetwork.host1.ipv4.mp forwardProtocolRegistration true
par MulticastNetwork.host1.ipv4.ip typename "\"inet.networklayer.ipv4.Ipv4\""
par MulticastNetwork.host1.ipv4.ip interfaceTableModule "\"MulticastNetwork.host1.interfaceTable\""
par MulticastNetwork.host1.ipv4.ip routingTableModule "\"MulticastNetwork.host1.ipv4.routingTable\""
par MulticastNetwork.host1.ipv4.ip arpModule "\"MulticastNetwork.host1.ipv4.arp\""
par MulticastNetwork.host1.ipv4.ip icmpModule "\"MulticastNetwork.host1.ipv4.icmp\""
par MulticastNetwork.host1.ipv4.ip crcMode "\"declared\""
attr enum declared,computed
par MulticastNetwork.host1.ipv4.ip timeToLive 32
par MulticastNetwork.host1.ipv4.ip multicastTimeToLive 32
par MulticastNetwork.host1.ipv4.ip fragmentTimeout 60s
attr unit s
par MulticastNetwork.host1.ipv4.ip limitedBroadcast false
par MulticastNetwork.host1.ipv4.ip directBroadcastInterfaces "\"\""
scalar MulticastNetwork.host1.ipv4.ip packetDropAddressResolutionFailed:count 0
attr interpolationmode none
attr recordingmode count
attr source packetDropReasonIsAddressResolutionFailed(packetDropped)
attr title "packet drop: address resolution failed, count"
scalar MulticastNetwork.host1.ipv4.ip packetDropAddressResolutionFailed:sum(packetBytes) 0
attr interpolationmode none
attr recordingmode sum(packetBytes)
attr source packetDropReasonIsAddressResolutionFailed(packetDropped)
attr title "packet drop: address resolution failed, sum(packetBytes)"
scalar MulticastNetwork.host1.ipv4.ip packetDropHopLimitReached:count 0
attr interpolationmode none
attr recordingmode count
attr source packetDropReasonIsHopLimitReached(packetDropped)
attr title "packet drop: hop limit reached, count"
scalar MulticastNetwork.host1.ipv4.ip packetDropHopLimitReached:sum(packetBytes) 0
attr interpolationmode none
attr recordingmode sum(packetBytes)
attr source packetDropReasonIsHopLimitReached(packetDropped)
attr title "packet drop: hop limit reached, sum(packetBytes)"
scalar MulticastNetwork.host1.ipv4.ip packetDropForwardingDisabled:count 0
attr interpolationmode none
attr recordingmode count
attr source packetDropReasonIsForwardingDisabled(packetDropped)
attr title "packet drop: forwarding disabled, count"
scalar MulticastNetwork.host1.ipv4.ip packetDropForwardingDisabled:sum(packetBytes) 0
attr interpolationmode none
attr recordingmode sum(packetBytes)
attr source packetDropReasonIsForwardingDisabled(packetDropped)
attr title "packet drop: forwarding disabled, sum(packetBytes)"
scalar MulticastNetwork.host1.ipv4.ip packetDropNoInterfaceFound:count 0
attr interpolationmode none
attr recordingmode count
attr source packetDropReasonIsNoInterfaceFound(packetDropped)
attr title "packet drop: no interface found, count"
scalar MulticastNetwork.host1.ipv4.ip packetDropNoInterfaceFound:sum(packetBytes) 0
attr interpolationmode none
attr recordingmode sum(packetBytes)
attr source packetDropReasonIsNoInterfaceFound(packetDropped)
attr title "packet drop: no interface found, sum(packetBytes)"
scalar MulticastNetwork.host1.ipv4.ip packetDropNoRouteFound:count 0
attr interpolationmode none
attr recordingmode count
attr source packetDropReasonIsNoRouteFound(packetDropped)
attr title "packet drop: no route found, count"
scalar MulticastNetwork.host1.ipv4.ip packetDropNoRouteFound:sum(packetBytes) 0
attr interpolationmode none
attr recordingmode sum(packetBytes)
attr source packetDropReasonIsNoRouteFound(packetDropped)
attr title "packet drop: no route found, sum(packetBytes)"
scalar MulticastNetwork.host1.ipv4.ip packetDropUndefined:count 0
attr interpolationmode none
attr recordingmode count
attr source packetDropReasonIsUndefined(packetDropped)
attr title "packet drop: undefined, count"
scalar MulticastNetwork.host1.ipv4.ip packetDropUndefined:sum(packetBytes) 0
attr interpolationmode none
attr recordingmode sum(packetBytes)
attr source packetDropReasonIsUndefined(packetDropped)
attr title "packet drop: undefined, sum(packetBytes)"
par MulticastNetwork.host1.ipv4.arp typename "\"inet.networklayer.arp.ipv4.Arp\""
par MulticastNetwork.host1.ipv4.arp interfaceTableModule "\"MulticastNetwork.host1.interfaceTable\""
par MulticastNetwork.host1.ipv4.arp routingTableModule "\"MulticastNetwork.host1.ipv4.routingTable\""
par MulticastNetwork.host1.ipv4.arp retryTimeout 1s
attr unit s
par MulticastNetwork.host1.ipv4.arp retryCount 3
par MulticastNetwork.host1.ipv4.arp cacheTimeout 120s
attr unit s
par MulticastNetwork.host1.ipv4.arp proxyArpInterfaces "\"\""
scalar MulticastNetwork.host1.ipv4.arp arpResolutionFailed:count 0
attr recordingmode count
attr title "ARP failed resolutions, count"
scalar MulticastNetwork.host1.ipv4.arp arpResolutionCompleted:count 0
attr recordingmode count
attr title "ARP completed resolutions, count"
scalar MulticastNetwork.host1.ipv4.arp arpResolutionInitiated:count 0
attr recordingmode count
attr title "ARP initiated resolutions, count"
scalar MulticastNetwork.host1.ipv4.arp arpReplySent:count 0
attr recordingmode count
attr source arpReplySent
attr title "ARP replies sent, count"
scalar MulticastNetwork.host1.ipv4.arp arpReplySent:sum(packetBytes) 0
attr recordingmode sum(packetBytes)
attr source arpReplySent
attr title "ARP replies sent, sum(packetBytes)"
scalar MulticastNetwork.host1.ipv4.arp arpRequestSent:count 0
attr recordingmode count
attr source arpRequestSent
attr title "ARP request sent, count"
scalar MulticastNetwork.host1.ipv4.arp arpRequestSent:sum(packetBytes) 0
attr recordingmode sum(packetBytes)
attr source arpRequestSent
attr title "ARP request sent, sum(packetBytes)"
par MulticastNetwork.host1.ipv4.lp typename "\"inet.common.MessageDispatcher\""
par MulticastNetwork.host1.ipv4.lp displayStringTextFormat "\"processed %p pk (%l)\""
par MulticastNetwork.host1.ipv4.lp forwardServiceRegistration true
par MulticastNetwork.host1.ipv4.lp forwardProtocolRegistration true
par MulticastNetwork.host1.ipv4 typename "\"inet.networklayer.ipv4.Ipv4NetworkLayer\""
par MulticastNetwork.host1.ipv4 forwarding false
par MulticastNetwork.host1.ipv4 multicastForwarding false
par MulticastNetwork.host1.ipv4 interfaceTableModule "\"MulticastNetwork.host1.interfaceTable\""
par MulticastNetwork.host1.ipv4 displayStringTextFormat "\"%i\""
par MulticastNetwork.host1.nl typename "\"inet.common.MessageDispatcher\""
par MulticastNetwork.host1.nl displayStringTextFormat "\"processed %p pk (%l)\""
par MulticastNetwork.host1.nl forwardServiceRegistration true
par MulticastNetwork.host1.nl forwardProtocolRegistration true
par MulticastNetwork.host1.udp typename "\"inet.transportlayer.udp.Udp\""
par MulticastNetwork.host1.udp interfaceTableModule "\"MulticastNetwork.host1.interfaceTable\""
par MulticastNetwork.host1.udp icmpModule "\"^.ipv4.icmp\""
par MulticastNetwork.host1.udp icmpv6Module "\"^.ipv6.icmpv6\""
par MulticastNetwork.host1.udp crcMode "\"declared\""
attr enum disabled,declared,computed
par MulticastNetwork.host1.udp defaultMulticastLoop true
scalar MulticastNetwork.host1.udp packetReceived:count 3
attr interpolationmode none
attr recordingmode count
attr source packetReceived
attr title "packets received, count"
scalar MulticastNetwork.host1.udp packetReceived:sum(packetBytes) 3774
attr interpolationmode none
attr recordingmode sum(packetBytes)
attr source packetReceived
attr title "packets received, sum(packetBytes)"
scalar MulticastNetwork.host1.udp packetSent:count 2
attr interpolationmode none
attr recordingmode count
attr source packetSent
attr title "packets sent, count"
scalar MulticastNetwork.host1.udp packetSent:sum(packetBytes) 2516
attr interpolationmode none
attr recordingmode sum(packetBytes)
attr source packetSent
attr title "packets sent, sum(packetBytes)"
scalar MulticastNetwork.host1.udp passedUpPk:count 3
attr interpolationmode none
attr recordingmode count
attr source packetSentToUpper
attr title "packets passed up, count"
scalar MulticastNetwork.host1.udp droppedPkWrongPort:count 0
attr interpolationmode none
attr recordingmode count
attr source packetDropReasonIsNoPortFound(packetDropped)
attr title "packets dropped (wrong port), count"
scalar MulticastNetwork.host1.udp droppedPkBadChecksum:count 0
attr interpolationmode none
attr recordingmode count
attr source packetDropReasonIsIncorrectlyReceived(packetDropped)
attr title "packets dropped (checksum error), count"
par MulticastNetwork.host1.tcp typename "\"inet.transportlayer.tcp.Tcp\""
par MulticastNetwork.host1.tcp crcMode "\"declared\""
attr enum declared,computed
par MulticastNetwork.host1.tcp advertisedWindow 7504
par MulticastNetwork.host1.tcp delayedAcksEnabled false
par MulticastNetwork.host1.tcp nagleEnabled true
par MulticastNetwork.host1.tcp limitedTransmitEnabled false
par MulticastNetwork.host1.tcp increasedIWEnabled false
par MulticastNetwork.host1.tcp sackSupport false
par MulticastNetwork.host1.tcp windowScalingSupport false
par MulticastNetwork.host1.tcp windowScalingFactor -1
par MulticastNetwork.host1.tcp timestampSupport false
par MulticastNetwork.host1.tcp mss 536
par MulticastNetwork.host1.tcp msl 120s
attr unit s
par MulticastNetwork.host1.tcp tcpAlgorithmClass "\"TcpReno\""
attr enum TcpVegas,TcpWestwood,TcpNewReno,TcpReno,TcpTahoe,TcpNoCongestionControl
par MulticastNetwork.host1.tcp useDataNotification false
par MulticastNetwork.host1.tcp dupthresh 3
par MulticastNetwork.host1.tcp initialSsthresh 4294967295
par MulticastNetwork.host1.tcp stopOperationExtraTime 0s
attr unit s
par MulticastNetwork.host1.tcp stopOperationTimeout 2s
attr unit s
par MulticastNetwork.host1.tcp ecnWillingness false
par MulticastNetwork.host1.tcp dctcpGamma 0.0625
par MulticastNetwork.host1.tn typename "\"inet.common.MessageDispatcher\""
par MulticastNetwork.host1.tn displayStringTextFormat "\"processed %p pk (%l)\""
par MulticastNetwork.host1.tn forwardServiceRegistration true
par MulticastNetwork.host1.tn forwardProtocolRegistration true
par MulticastNetwork.host1.app[0] typename "\"inet.applications.udpapp.UdpBasicApp\""
par MulticastNetwork.host1.app[0] interfaceTableModule "\"MulticastNetwork.host1.interfaceTable\""
par MulticastNetwork.host1.app[0] clockModule "\"\""
par MulticastNetwork.host1.app[0] localPort 100
par MulticastNetwork.host1.app[0] destAddresses "\"172.0.0.1 172.0.0.2 172.0.0.3 172.0.1.1 172.0.2.2       225.0.0.1 225.0.0.2 225.0.0.3 225.0.1.1 225.0.1.2 225.0.2.1\""
par MulticastNetwork.host1.app[0] localAddress "\"\""
par MulticastNetwork.host1.app[0] packetName "\"UdpBasicAppData\""
par MulticastNetwork.host1.app[0] destPort 100
par MulticastNetwork.host1.app[0] messageLength 1250B
attr unit B
par MulticastNetwork.host1.app[0] startTime 0.9s
attr unit s
par MulticastNetwork.host1.app[0] stopTime -1s
attr unit s
par MulticastNetwork.host1.app[0] sendInterval 0.9s
attr unit s
par MulticastNetwork.host1.app[0] timeToLive -1
par MulticastNetwork.host1.app[0] dontFragment false
par MulticastNetwork.host1.app[0] dscp -1
par MulticastNetwork.host1.app[0] tos -1
par MulticastNetwork.host1.app[0] multicastInterface "\"\""
par MulticastNetwork.host1.app[0] receiveBroadcast false
par MulticastNetwork.host1.app[0] joinLocalMulticastGroups true
par MulticastNetwork.host1.app[0] stopOperationExtraTime -1s
attr unit s
par MulticastNetwork.host1.app[0] stopOperationTimeout 2s
attr unit s
scalar MulticastNetwork.host1.app[0] "packets sent" 2
scalar MulticastNetwork.host1.app[0] "packets received" 3
scalar MulticastNetwork.host1.app[0] packetReceived:count 3
attr interpolationmode none
attr recordingmode count
attr source packetReceived
attr title "packets received, count"
scalar MulticastNetwork.host1.app[0] packetReceived:sum(packetBytes) 3750
attr interpolationmode none
attr recordingmode sum(packetBytes)
attr source packetReceived
attr title "packets received, sum(packetBytes)"
statistic MulticastNetwork.host1.app[0] rcvdPkLifetime:stats
field count 3
field mean 0.001958861614
field stddev 0.0017725828942822
field min 0
field max 0.003452292421
field sum 0.005876584842
field sqrsum 1.7795516702612e-05
attr interpolationmode none
attr recordingmode stats
attr source dataAge(packetReceived)
attr title "received packet lifetime"
attr unit s
scalar MulticastNetwork.host1.app[0] packetSent:count 2
attr interpolationmode none
attr recordingmode count
attr source packetSent
attr title "packets sent, count"
scalar MulticastNetwork.host1.app[0] packetSent:sum(packetBytes) 2500
attr interpolationmode none
attr recordingmode sum(packetBytes)
attr source packetSent
attr title "packets sent, sum(packetBytes)"
par MulticastNetwork.host1.at typename "\"inet.common.MessageDispatcher\""
par MulticastNetwork.host1.at displayStringTextFormat "\"processed %p pk (%l)\""
par MulticastNetwork.host1.at forwardServiceRegistration true
par MulticastNetwork.host1.at forwardProtocolRegistration true
par MulticastNetwork.host1 typename "\"inet.node.inet.StandardHost\""
par MulticastNetwork.host1 hasStatus false
par MulticastNetwork.host1 osgModel "\"\""
par MulticastNetwork.host1 osgModelColor "\"\""
par MulticastNetwork.host1 canvasImage "\"\""
par MulticastNetwork.host1 canvasImageColor "\"\""
par MulticastNetwork.host1 recordPcap false
par MulticastNetwork.host1 numPcapRecorders 0
par MulticastNetwork.host1 numLoInterfaces 1
par MulticastNetwork.host1 numWlanInterfaces 0
par MulticastNetwork.host1 numEthInterfaces 0
par MulticastNetwork.host1 numPppInterfaces 0
par MulticastNetwork.host1 numTunInterfaces 0
par MulticastNetwork.host1 numVirtInterfaces 0
par MulticastNetwork.host1 fcsMode "\"declared\""
attr enum declared,computed
par MulticastNetwork.host1 hasIpv4 true
par MulticastNetwork.host1 hasIpv6 false
par MulticastNetwork.host1 hasGn false
par MulticastNetwork.host1 forwarding false
par MulticastNetwork.host1 multicastForwarding false
par MulticastNetwork.host1 hasUdp true
par MulticastNetwork.host1 hasTcp true
par MulticastNetwork.host1 hasSctp false
par MulticastNetwork.host1 numApps 1
par MulticastNetwork.host2.pppg$i[0].channel typename "\"ned.IdealChannel\""
par MulticastNetwork.host2.ppp[0].phys$o.channel typename "\"ned.IdealChannel\""
par MulticastNetwork.host2.pppg$i[1].channel typename "\"ned.IdealChannel\""
par MulticastNetwork.host2.ppp[1].phys$o.channel typename "\"ned.IdealChannel\""
par MulticastNetwork.host2.interfaceTable typename "\"inet.networklayer.common.InterfaceTable\""
par MulticastNetwork.host2.interfaceTable displayAddresses false
par MulticastNetwork.host2.cb typename "\"inet.common.MessageDispatcher\""
par MulticastNetwork.host2.cb displayStringTextFormat "\"processed %p pk (%l)\""
par MulticastNetwork.host2.cb forwardServiceRegistration true
par MulticastNetwork.host2.cb forwardProtocolRegistration true
par MulticastNetwork.host2.bl typename "\"inet.common.MessageDispatcher\""
par MulticastNetwork.host2.bl displayStringTextFormat "\"processed %p pk (%l)\""
par MulticastNetwork.host2.bl forwardServiceRegistration true
par MulticastNetwork.host2.bl forwardProtocolRegistration true
par MulticastNetwork.host2.li typename "\"inet.common.MessageDispatcher\""
par MulticastNetwork.host2.li displayStringTextFormat "\"processed %p pk (%l)\""
par MulticastNetwork.host2.li forwardServiceRegistration true
par MulticastNetwork.host2.li forwardProtocolRegistration true
par MulticastNetwork.host2.lo[0].upperLayerIn.channel typename "\"ned.IdealChannel\""
par MulticastNetwork.host2.lo[0].lo.upperLayerOut.channel typename "\"ned.IdealChannel\""
par MulticastNetwork.host2.lo[0].lo typename "\"inet.linklayer.loopback.Loopback\""
par MulticastNetwork.host2.lo[0].lo interfaceTableModule "\"MulticastNetwork.host2.interfaceTable\""
par MulticastNetwork.host2.lo[0].lo mtu 4470B
attr unit B
scalar MulticastNetwork.host2.lo[0].lo rcvdPkFromHl:count 1
attr interpolationmode none
attr recordingmode count
attr source packetReceivedFromUpper
attr title "packets received from higher layer, count"
scalar MulticastNetwork.host2.lo[0].lo rcvdPkFromHl:sum(packetBytes) 1278
attr interpolationmode none
attr recordingmode sum(packetBytes)
attr source packetReceivedFromUpper
attr title "packets received from higher layer, sum(packetBytes)"
scalar MulticastNetwork.host2.lo[0].lo passedUpPk:count 1
attr interpolationmode none
attr recordingmode count
attr source packetSentToUpper
attr title "packets passed to higher layer, count"
scalar MulticastNetwork.host2.lo[0].lo passedUpPk:sum(packetBytes) 1278
attr interpolationmode none
attr recordingmode sum(packetBytes)
attr source packetSentToUpper
attr title "packets passed to higher layer, sum(packetBytes)"
par MulticastNetwork.host2.lo[0] typename "\"inet.linklayer.loopback.LoopbackInterface\""
par MulticastNetwork.host2.lo[0] displayStringTextFormat "\"%a (%i)\\n%m\""
par MulticastNetwork.host2.lo[0] recordPcap false
par MulticastNetwork.host2.lo[0] numPcapRecorders 0
par MulticastNetwork.host2.lo[0] interfaceTableModule "\"MulticastNetwork.host2.interfaceTable\""
scalar MulticastNetwork.host2.lo[0] packetDropInterfaceDown:count 0
attr interpolationmode none
attr recordingmode count
attr source packetDropReasonIsInterfaceDown(packetDropped)
attr title "packet drops: interface down, count"
scalar MulticastNetwork.host2.lo[0] packetDropInterfaceDown:sum(packetBytes) 0
attr interpolationmode none
attr recordingmode sum(packetBytes)
attr source packetDropReasonIsInterfaceDown(packetDropped)
attr title "packet drops: interface down, sum(packetBytes)"
scalar MulticastNetwork.host2.lo[0] packetDropNoCarrier:count 0
attr interpolationmode none
attr recordingmode count
attr source packetDropReasonIsNoCarrier(packetDropped)
attr title "packet drops: no carrier, count"
scalar MulticastNetwork.host2.lo[0] packetDropNoCarrier:sum(packetBytes) 0
attr interpolationmode none
attr recordingmode sum(packetBytes)
attr source packetDropReasonIsNoCarrier(packetDropped)
attr title "packet drops: no carrier, sum(packetBytes)"
par MulticastNetwork.host2.ppp[0].phys$i.channel typename "\"ned.IdealChannel\""
par MulticastNetwork.host2.ppp[0].ppp.phys$o.channel typename "\"ned.IdealChannel\""
par MulticastNetwork.host2.ppp[0].ppp.upperLayerOut.channel typename "\"ned.IdealChannel\""
par MulticastNetwork.host2.ppp[0].upperLayerIn.channel typename "\"ned.IdealChannel\""
par MulticastNetwork.host2.ppp[0].queue typename "\"inet.queueing.queue.DropTailQueue\""
par MulticastNetwork.host2.ppp[0].queue displayStringTextFormat "\"contains %p pk (%l) pushed %u\\npulled %o removed %r dropped %d\""
par MulticastNetwork.host2.ppp[0].queue packetCapacity 10
par MulticastNetwork.host2.ppp[0].queue dataCapacity -1b
attr unit b
par MulticastNetwork.host2.ppp[0].queue dropperClass "\"inet::queueing::PacketAtCollectionEndDropper\""
par MulticastNetwork.host2.ppp[0].queue comparatorClass "\"\""
par MulticastNetwork.host2.ppp[0].queue bufferModule "\"\""
scalar MulticastNetwork.host2.ppp[0].queue queueLength:last 0
attr autoWarmupFilter false
attr interpolationmode sample-hold
attr recordingmode last
attr source "warmup(atomic(constant0(packetPushEnded) + count(packetPushStarted) - count(packetPulled) - count(packetRemoved) - count(packetDropped)))"
attr title "queue length, last"
attr unit pk
scalar MulticastNetwork.host2.ppp[0].queue queueLength:max 3
attr autoWarmupFilter false
attr interpolationmode sample-hold
attr recordingmode max
attr source "warmup(atomic(constant0(packetPushEnded) + count(packetPushStarted) - count(packetPulled) - count(packetRemoved) - count(packetDropped)))"
attr title "queue length, max"
attr unit pk
scalar MulticastNetwork.host2.ppp[0].queue queueLength:timeavg 9.5225808928569e-05
attr autoWarmupFilter false
attr interpolationmode sample-hold
attr recordingmode timeavg
attr source "warmup(atomic(constant0(packetPushEnded) + count(packetPushStarted) - count(packetPulled) - count(packetRemoved) - count(packetDropped)))"
attr title "queue length, timeavg"
attr unit pk
scalar MulticastNetwork.host2.ppp[0].queue queueBitLength:last 0
attr autoWarmupFilter false
attr interpolationmode sample-hold
attr recordingmode last
attr source "warmup(atomic(constant0(packetPushEnded) + sum(packetLength(packetPushStarted)) - sum(packetLength(packetPulled)) - sum(packetLength(packetRemoved)) - sum(packetLength(packetDropped))))"
attr title "queue bit length, last"
attr unit b
scalar MulticastNetwork.host2.ppp[0].queue queueBitLength:max 736
attr autoWarmupFilter false
attr interpolationmode sample-hold
attr recordingmode max
attr source "warmup(atomic(constant0(packetPushEnded) + sum(packetLength(packetPushStarted)) - sum(packetLength(packetPulled)) - sum(packetLength(packetRemoved)) - sum(packetLength(packetDropped))))"
attr title "queue bit length, max"
attr unit b
scalar MulticastNetwork.host2.ppp[0].queue queueBitLength:timeavg 0.022854194142856
attr autoWarmupFilter false
attr interpolationmode sample-hold
attr recordingmode timeavg
attr source "warmup(atomic(constant0(packetPushEnded) + sum(packetLength(packetPushStarted)) - sum(packetLength(packetPulled)) - sum(packetLength(packetRemoved)) - sum(packetLength(packetDropped))))"
attr title "queue bit length, timeavg"
attr unit b
statistic MulticastNetwork.host2.ppp[0].queue queueingTime:histogram
field count 6
field mean 3.12e-05
field stddev 3.9465225198901e-05
field min 0
field max 9.36e-05
field sum 0.0001872
field sqrsum 1.362816e-08
attr interpolationmode none
attr recordingmode histogram
attr source queueingTime(packetPulled)
attr title "queueing times"
attr unit s
bin	-inf	0
bin	0	3
bin	2e-06	0
bin	4e-06	0
bin	6e-06	0
bin	8e-06	0
bin	1e-05	0
bin	1.2e-05	0
bin	1.4e-05	0
bin	1.6e-05	0
bin	1.8e-05	0
bin	2e-05	0
bin	2.2e-05	0
bin	2.4e-05	0
bin	2.6e-05	0
bin	2.8e-05	0
bin	3e-05	1
bin	3.2e-05	0
bin	3.4e-05	0
bin	3.6e-05	0
bin	3.8e-05	0
bin	4e-05	0
bin	4.2e-05	0
bin	4.4e-05	0
bin	4.6e-05	0
bin	4.8e-05	0
bin	5e-05	0
bin	5.2e-05	0
bin	5.4e-05	0
bin	5.6e-05	0
bin	5.8e-05	0
bin	6e-05	0
bin	6.2e-05	1
bin	6.4e-05	0
bin	6.6e-05	0
bin	6.8e-05	0
bin	7e-05	0
bin	7.2e-05	0
bin	7.4e-05	0
bin	7.6e-05	0
bin	7.8e-05	0
bin	8e-05	0
bin	8.2e-05	0
bin	8.4e-05	0
bin	8.6e-05	0
bin	8.8e-05	0
bin	9e-05	0
bin	9.2e-05	1
bin	9.4e-05	0
bin	9.6e-05	0
bin	9.8e-05	0
bin	0.0001	0
bin	0.000102	0
bin	0.000104	0
bin	0.000106	0
bin	0.000108	0
bin	0.00011	0
bin	0.000112	0
bin	0.000114	0
bin	0.000116	0
bin	0.000118	0
scalar MulticastNetwork.host2.ppp[0].queue outgoingPackets:count 6
attr recordingmode count
attr source packetPulled
attr title "outgoing packets, count"
attr unit pk
scalar MulticastNetwork.host2.ppp[0].queue outgoingPacketLengths:sum 21440
attr interpolationmode none
attr recordingmode sum
attr source packetLength(packetPulled)
attr title "outgoing packet lengths, sum"
attr unit b
statistic MulticastNetwork.host2.ppp[0].queue outgoingPacketLengths:histogram
field count 6
field mean 3573.3333333333
field stddev 5151.5991562491
field min 224
field max 10224
field sum 21440
field sqrsum 209307136
attr interpolationmode none
attr recordingmode histogram
attr source packetLength(packetPulled)
attr title "outgoing packet lengths"
attr unit b
bin	-inf	0
bin	0	0
bin	200	4
bin	400	0
bin	600	0
bin	800	0
bin	1000	0
bin	1200	0
bin	1400	0
bin	1600	0
bin	1800	0
bin	2000	0
bin	2200	0
bin	2400	0
bin	2600	0
bin	2800	0
bin	3000	0
bin	3200	0
bin	3400	0
bin	3600	0
bin	3800	0
bin	4000	0
bin	4200	0
bin	4400	0
bin	4600	0
bin	4800	0
bin	5000	0
bin	5200	0
bin	5400	0
bin	5600	0
bin	5800	0
bin	6000	0
bin	6200	0
bin	6400	0
bin	6600	0
bin	6800	0
bin	7000	0
bin	7200	0
bin	7400	0
bin	7600	0
bin	7800	0
bin	8000	0
bin	8200	0
bin	8400	0
bin	8600	0
bin	8800	0
bin	9000	0
bin	9200	0
bin	9400	0
bin	9600	0
bin	9800	0
bin	10000	0
bin	10200	2
bin	10400	0
bin	10600	0
bin	10800	0
bin	11000	0
bin	11200	0
bin	11400	0
bin	11600	0
bin	11800	0
bin	12000	0
bin	12200	0
bin	12400	0
bin	12600	0
bin	12800	0
statistic MulticastNetwork.host2.ppp[0].queue flowQueueingTime:histogram
field count 0
field mean -nan
field stddev nan
field min nan
field max nan
field sum 0
field sqrsum 0
attr interpolationmode none
attr recordingmode histogram
attr source queueingTime(demuxFlow(packetPulled))
attr title "flow queueing times"
attr unit s
bin	-inf	0
bin	0	0
bin	1	0
scalar MulticastNetwork.host2.ppp[0].queue incomingPackets:count 6
attr recordingmode count
attr source packetPushStarted
attr title "incoming packets, count"
attr unit pk
scalar MulticastNetwork.host2.ppp[0].queue incomingPacketLengths:sum 21440
attr interpolationmode none
attr recordingmode sum
attr source packetLength(packetPushStarted)
attr title "incoming packet lengths, sum"
attr unit b
statistic MulticastNetwork.host2.ppp[0].queue incomingPacketLengths:histogram
field count 6
field mean 3573.3333333333
field stddev 5151.5991562491
field min 224
field max 10224
field sum 21440
field sqrsum 209307136
attr interpolationmode none
attr recordingmode histogram
attr source packetLength(packetPushStarted)
attr title "incoming packet lengths"
attr unit b
bin	-inf	0
bin	0	0
bin	200	4
bin	400	0
bin	600	0
bin	800	0
bin	1000	0
bin	1200	0
bin	1400	0
bin	1600	0
bin	1800	0
bin	2000	0
bin	2200	0
bin	2400	0
bin	2600	0
bin	2800	0
bin	3000	0
bin	3200	0
bin	3400	0
bin	3600	0
bin	3800	0
bin	4000	0
bin	4200	0
bin	4400	0
bin	4600	0
bin	4800	0
bin	5000	0
bin	5200	0
bin	5400	0
bin	5600	0
bin	5800	0
bin	6000	0
bin	6200	0
bin	6400	0
bin	6600	0
bin	6800	0
bin	7000	0
bin	7200	0
bin	7400	0
bin	7600	0
bin	7800	0
bin	8000	0
bin	8200	0
bin	8400	0
bin	8600	0
bin	8800	0
bin	9000	0
bin	9200	0
bin	9400	0
bin	9600	0
bin	9800	0
bin	10000	0
bin	10200	2
bin	10400	0
bin	10600	0
bin	10800	0
bin	11000	0
bin	11200	0
bin	11400	0
bin	11600	0
bin	11800	0
bin	12000	0
bin	12200	0
bin	12400	0
bin	12600	0
bin	12800	0
scalar MulticastNetwork.host2.ppp[0].queue droppedPacketsQueueOverflow:count 0
attr interpolationmode none
attr recordingmode count
attr source packetDropReasonIsQueueOverflow(packetDropped)
attr title "dropped packets: queue overflow, count"
attr unit pk
scalar MulticastNetwork.host2.ppp[0].queue droppedPacketLengthsQueueOverflow:sum 0
attr interpolationmode none
attr recordingmode sum
attr source packetLength(packetDropReasonIsQueueOverflow(packetDropped))
attr title "dropped packet lengths: queue overflow, sum"
attr unit b
par MulticastNetwork.host2.ppp[0].ppp typename "\"inet.linklayer.ppp.Ppp\""
par MulticastNetwork.host2.ppp[0].ppp interfaceTableModule "\"MulticastNetwork.host2.interfaceTable\""
par MulticastNetwork.host2.ppp[0].ppp displayStringTextFormat "\"rate: %b\\nsent: %s, rcvd: %r\\nqueue: %q, drop: %d\""
par MulticastNetwork.host2.ppp[0].ppp sendRawBytes false
par MulticastNetwork.host2.ppp[0].ppp mtu 4470B
attr unit B
par MulticastNetwork.host2.ppp[0].ppp stopOperationExtraTime -1s
attr unit s
par MulticastNetwork.host2.ppp[0].ppp stopOperationTimeout 2s
attr unit s
scalar MulticastNetwork.host2.ppp[0].ppp transmissionState:timeavg 0.0011077121876221
attr interpolationmode sample-hold
attr recordingmode timeavg
attr source transmissionStateChanged
attr title "tx state, timeavg"
scalar MulticastNetwork.host2.ppp[0].ppp rxPkOk:count 2
attr interpolationmode none
attr recordingmode count
attr source rxPkOk
attr title "packets received OK, count"
scalar MulticastNetwork.host2.ppp[0].ppp rxPkOk:sum(packetBytes) 1320
attr interpolationmode none
attr recordingmode sum(packetBytes)
attr source rxPkOk
attr title "packets received OK, sum(packetBytes)"
scalar MulticastNetwork.host2.ppp[0].ppp txPk:count 6
attr interpolationmode none
attr recordingmode count
attr source packetSentToLower
attr title "packets transmitted, count"
scalar MulticastNetwork.host2.ppp[0].ppp txPk:sum(packetBytes) 2722
attr interpolationmode none
attr recordingmode sum(packetBytes)
attr source packetSentToLower
attr title "packets transmitted, sum(packetBytes)"
scalar MulticastNetwork.host2.ppp[0].ppp rcvdPkFromHl:count 6
attr interpolationmode none
attr recordingmode count
attr source packetReceivedFromUpper
attr title "packets received from higher layer, count"
scalar MulticastNetwork.host2.ppp[0].ppp rcvdPkFromHl:sum(packetBytes) 2680
attr interpolationmode none
attr recordingmode sum(packetBytes)
attr source packetReceivedFromUpper
attr title "packets received from higher layer, sum(packetBytes)"
scalar MulticastNetwork.host2.ppp[0].ppp passedUpPk:count 2
attr interpolationmode none
attr recordingmode count
attr source packetSentToUpper
attr title "packets passed to higher layer, count"
scalar MulticastNetwork.host2.ppp[0].ppp passedUpPk:sum(packetBytes) 1306
attr interpolationmode none
attr recordingmode sum(packetBytes)
attr source packetSentToUpper
attr title "packets passed to higher layer, sum(packetBytes)"
scalar MulticastNetwork.host2.ppp[0].ppp packetDropIncorrectlyReceived:count 0
attr interpolationmode none
attr recordingmode count
attr source packetDropReasonIsIncorrectlyReceived(packetDropped)
attr title "packet drop: incorrectly received, count"
scalar MulticastNetwork.host2.ppp[0].ppp packetDropIncorrectlyReceived:sum(packetBytes) 0
attr interpolationmode none
attr recordingmode sum(packetBytes)
attr source packetDropReasonIsIncorrectlyReceived(packetDropped)
attr title "packet drop: incorrectly received, sum(packetBytes)"
scalar MulticastNetwork.host2.ppp[0].ppp packetDropInterfaceDown:count 0
attr interpolationmode none
attr recordingmode count
attr source packetDropReasonIsInterfaceDown(packetDropped)
attr title "packet drop: interface down, count"
scalar MulticastNetwork.host2.ppp[0].ppp packetDropInterfaceDown:sum(packetBytes) 0
attr interpolationmode none
attr recordingmode sum(packetBytes)
attr source packetDropReasonIsInterfaceDown(packetDropped)
attr title "packet drop: interface down, sum(packetBytes)"
par MulticastNetwork.host2.ppp[0] typename "\"inet.linklayer.ppp.PppInterface\""
par MulticastNetwork.host2.ppp[0] displayStringTextFormat "\"%a (%i)\\n%m\""
par MulticastNetwork.host2.ppp[0] recordPcap false
par MulticastNetwork.host2.ppp[0] numPcapRecorders 0
par MulticastNetwork.host2.ppp[0] interfaceTableModule "\"MulticastNetwork.host2.interfaceTable\""
scalar MulticastNetwork.host2.ppp[0] packetDropInterfaceDown:count 0
attr interpolationmode none
attr recordingmode count
attr source packetDropReasonIsInterfaceDown(packetDropped)
attr title "packet drops: interface down, count"
scalar MulticastNetwork.host2.ppp[0] packetDropInterfaceDown:sum(packetBytes) 0
attr interpolationmode none
attr recordingmode sum(packetBytes)
attr source packetDropReasonIsInterfaceDown(packetDropped)
attr title "packet drops: interface down, sum(packetBytes)"
scalar MulticastNetwork.host2.ppp[0] packetDropNoCarrier:count 0
attr interpolationmode none
attr recordingmode count
attr source packetDropReasonIsNoCarrier(packetDropped)
attr title "packet drops: no carrier, count"
scalar MulticastNetwork.host2.ppp[0] packetDropNoCarrier:sum(packetBytes) 0
attr interpolationmode none
attr recordingmode sum(packetBytes)
attr source packetDropReasonIsNoCarrier(packetDropped)
attr title "packet drops: no carrier, sum(packetBytes)"
par MulticastNetwork.host2.ppp[1].phys$i.channel typename "\"ned.IdealChannel\""
par MulticastNetwork.host2.ppp[1].ppp.phys$o.channel typename "\"ned.IdealChannel\""
par MulticastNetwork.host2.ppp[1].ppp.upperLayerOut.channel typename "\"ned.IdealChannel\""
par MulticastNetwork.host2.ppp[1].upperLayerIn.channel typename "\"ned.IdealChannel\""
par MulticastNetwork.host2.ppp[1].queue typename "\"inet.queueing.queue.DropTailQueue\""
par MulticastNetwork.host2.ppp[1].queue displayStringTextFormat "\"contains %p pk (%l) pushed %u\\npulled %o removed %r dropped %d\""
par MulticastNetwork.host2.ppp[1].queue packetCapacity 10
par MulticastNetwork.host2.ppp[1].queue dataCapacity -1b
attr unit b
par MulticastNetwork.host2.ppp[1].queue dropperClass "\"inet::queueing::PacketAtCollectionEndDropper\""
par MulticastNetwork.host2.ppp[1].queue comparatorClass "\"\""
par MulticastNetwork.host2.ppp[1].queue bufferModule "\"\""
scalar MulticastNetwork.host2.ppp[1].queue queueLength:last 0
attr autoWarmupFilter false
attr interpolationmode sample-hold
attr recordingmode last
attr source "warmup(atomic(constant0(packetPushEnded) + count(packetPushStarted) - count(packetPulled) - count(packetRemoved) - count(packetDropped)))"
attr title "queue length, last"
attr unit pk
scalar MulticastNetwork.host2.ppp[1].queue queueLength:max 0
attr autoWarmupFilter false
attr interpolationmode sample-hold
attr recordingmode max
attr source "warmup(atomic(constant0(packetPushEnded) + count(packetPushStarted) - count(packetPulled) - count(packetRemoved) - count(packetDropped)))"
attr title "queue length, max"
attr unit pk
scalar MulticastNetwork.host2.ppp[1].queue queueLength:timeavg 0
attr autoWarmupFilter false
attr interpolationmode sample-hold
attr recordingmode timeavg
attr source "warmup(atomic(constant0(packetPushEnded) + count(packetPushStarted) - count(packetPulled) - count(packetRemoved) - count(packetDropped)))"
attr title "queue length, timeavg"
attr unit pk
scalar MulticastNetwork.host2.ppp[1].queue queueBitLength:last 0
attr autoWarmupFilter false
attr interpolationmode sample-hold
attr recordingmode last
attr source "warmup(atomic(constant0(packetPushEnded) + sum(packetLength(packetPushStarted)) - sum(packetLength(packetPulled)) - sum(packetLength(packetRemoved)) - sum(packetLength(packetDropped))))"
attr title "queue bit length, last"
attr unit b
scalar MulticastNetwork.host2.ppp[1].queue queueBitLength:max 0
attr autoWarmupFilter false
attr interpolationmode sample-hold
attr recordingmode max
attr source "warmup(atomic(constant0(packetPushEnded) + sum(packetLength(packetPushStarted)) - sum(packetLength(packetPulled)) - sum(packetLength(packetRemoved)) - sum(packetLength(packetDropped))))"
attr title "queue bit length, max"
attr unit b
scalar MulticastNetwork.host2.ppp[1].queue queueBitLength:timeavg 0
attr autoWarmupFilter false
attr interpolationmode sample-hold
attr recordingmode timeavg
attr source "warmup(atomic(constant0(packetPushEnded) + sum(packetLength(packetPushStarted)) - sum(packetLength(packetPulled)) - sum(packetLength(packetRemoved)) - sum(packetLength(packetDropped))))"
attr title "queue bit length, timeavg"
attr unit b
statistic MulticastNetwork.host2.ppp[1].queue queueingTime:histogram
field count 2
field mean 0
field stddev 0
field min 0
field max 0
field sum 0
field sqrsum 0
attr interpolationmode none
attr recordingmode histogram
attr source queueingTime(packetPulled)
attr title "queueing times"
attr unit s
bin	-inf	0
bin	-0.5	0
bin	-0.48	0
bin	-0.46	0
bin	-0.44	0
bin	-0.42	0
bin	-0.4	0
bin	-0.38	0
bin	-0.36	0
bin	-0.34	0
bin	-0.32	0
bin	-0.3	0
bin	-0.28	0
bin	-0.26	0
bin	-0.24	0
bin	-0.22	0
bin	-0.2	0
bin	-0.18	0
bin	-0.16	0
bin	-0.14	0
bin	-0.12	0
bin	-0.1	0
bin	-0.08	0
bin	-0.06	0
bin	-0.04	0
bin	-0.02	0
bin	0	2
bin	0.02	0
bin	0.04	0
bin	0.06	0
bin	0.08	0
bin	0.1	0
bin	0.12	0
bin	0.14	0
bin	0.16	0
bin	0.18	0
bin	0.2	0
bin	0.22	0
bin	0.24	0
bin	0.26	0
bin	0.28	0
bin	0.3	0
bin	0.32	0
bin	0.34	0
bin	0.36	0
bin	0.38	0
bin	0.4	0
bin	0.42	0
bin	0.44	0
bin	0.46	0
bin	0.48	0
bin	0.5	0
scalar MulticastNetwork.host2.ppp[1].queue outgoingPackets:count 2
attr recordingmode count
attr source packetPulled
attr title "outgoing packets, count"
attr unit pk
scalar MulticastNetwork.host2.ppp[1].queue outgoingPacketLengths:sum 10448
attr interpolationmode none
attr recordingmode sum
attr source packetLength(packetPulled)
attr title "outgoing packet lengths, sum"
attr unit b
statistic MulticastNetwork.host2.ppp[1].queue outgoingPacketLengths:histogram
field count 2
field mean 5224
field stddev 7071.0678118655
field min 224
field max 10224
field sum 10448
field sqrsum 104580352
attr interpolationmode none
attr recordingmode histogram
attr source packetLength(packetPulled)
attr title "outgoing packet lengths"
attr unit b
bin	-inf	0
bin	0	0
bin	200	1
bin	400	0
bin	600	0
bin	800	0
bin	1000	0
bin	1200	0
bin	1400	0
bin	1600	0
bin	1800	0
bin	2000	0
bin	2200	0
bin	2400	0
bin	2600	0
bin	2800	0
bin	3000	0
bin	3200	0
bin	3400	0
bin	3600	0
bin	3800	0
bin	4000	0
bin	4200	0
bin	4400	0
bin	4600	0
bin	4800	0
bin	5000	0
bin	5200	0
bin	5400	0
bin	5600	0
bin	5800	0
bin	6000	0
bin	6200	0
bin	6400	0
bin	6600	0
bin	6800	0
bin	7000	0
bin	7200	0
bin	7400	0
bin	7600	0
bin	7800	0
bin	8000	0
bin	8200	0
bin	8400	0
bin	8600	0
bin	8800	0
bin	9000	0
bin	9200	0
bin	9400	0
bin	9600	0
bin	9800	0
bin	10000	0
bin	10200	1
bin	10400	0
bin	10600	0
bin	10800	0
bin	11000	0
bin	11200	0
bin	11400	0
bin	11600	0
bin	11800	0
bin	12000	0
bin	12200	0
bin	12400	0
bin	12600	0
bin	12800	0
statistic MulticastNetwork.host2.ppp[1].queue flowQueueingTime:histogram
field count 0
field mean -nan
field stddev nan
field min nan
field max nan
field sum 0
field sqrsum 0
attr interpolationmode none
attr recordingmode histogram
attr source queueingTime(demuxFlow(packetPulled))
attr title "flow queueing times"
attr unit s
bin	-inf	0
bin	0	0
bin	1	0
scalar MulticastNetwork.host2.ppp[1].queue incomingPackets:count 2
attr recordingmode count
attr source packetPushStarted
attr title "incoming packets, count"
attr unit pk
scalar MulticastNetwork.host2.ppp[1].queue incomingPacketLengths:sum 10448
attr interpolationmode none
attr recordingmode sum
attr source packetLength(packetPushStarted)
attr title "incoming packet lengths, sum"
attr unit b
statistic MulticastNetwork.host2.ppp[1].queue incomingPacketLengths:histogram
field count 2
field mean 5224
field stddev 7071.0678118655
field min 224
field max 10224
field sum 10448
field sqrsum 104580352
attr interpolationmode none
attr recordingmode histogram
attr source packetLength(packetPushStarted)
attr title "incoming packet lengths"
attr unit b
bin	-inf	0
bin	0	0
bin	200	1
bin	400	0
bin	600	0
bin	800	0
bin	1000	0
bin	1200	0
bin	1400	0
bin	1600	0
bin	1800	0
bin	2000	0
bin	2200	0
bin	2400	0
bin	2600	0
bin	2800	0
bin	3000	0
bin	3200	0
bin	3400	0
bin	3600	0
bin	3800	0
bin	4000	0
bin	4200	0
bin	4400	0
bin	4600	0
bin	4800	0
bin	5000	0
bin	5200	0
bin	5400	0
bin	5600	0
bin	5800	0
bin	6000	0
bin	6200	0
bin	6400	0
bin	6600	0
bin	6800	0
bin	7000	0
bin	7200	0
bin	7400	0
bin	7600	0
bin	7800	0
bin	8000	0
bin	8200	0
bin	8400	0
bin	8600	0
bin	8800	0
bin	9000	0
bin	9200	0
bin	9400	0
bin	9600	0
bin	9800	0
bin	10000	0
bin	10200	1
bin	10400	0
bin	10600	0
bin	10800	0
bin	11000	0
bin	11200	0
bin	11400	0
bin	11600	0
bin	11800	0
bin	12000	0
bin	12200	0
bin	12400	0
bin	12600	0
bin	12800	0
scalar MulticastNetwork.host2.ppp[1].queue droppedPacketsQueueOverflow:count 0
attr interpolationmode none
attr recordingmode count
attr source packetDropReasonIsQueueOverflow(packetDropped)
attr title "dropped packets: queue overflow, count"
attr unit pk
scalar MulticastNetwork.host2.ppp[1].queue droppedPacketLengthsQueueOverflow:sum 0
attr interpolationmode none
attr recordingmode sum
attr source packetLength(packetDropReasonIsQueueOverflow(packetDropped))
attr title "dropped packet lengths: queue overflow, sum"
attr unit b
par MulticastNetwork.host2.ppp[1].ppp typename "\"inet.linklayer.ppp.Ppp\""
par MulticastNetwork.host2.ppp[1].ppp interfaceTableModule "\"MulticastNetwork.host2.interfaceTable\""
par MulticastNetwork.host2.ppp[1].ppp displayStringTextFormat "\"rate: %b\\nsent: %s, rcvd: %r\\nqueue: %q, drop: %d\""
par MulticastNetwork.host2.ppp[1].ppp sendRawBytes false
par MulticastNetwork.host2.ppp[1].ppp mtu 4470B
attr unit B
par MulticastNetwork.host2.ppp[1].ppp stopOperationExtraTime -1s
attr unit s
par MulticastNetwork.host2.ppp[1].ppp stopOperationTimeout 2s
attr unit s
scalar MulticastNetwork.host2.ppp[1].ppp transmissionState:timeavg 0.083933004664604
attr interpolationmode sample-hold
attr recordingmode timeavg
attr source transmissionStateChanged
attr title "tx state, timeavg"
scalar MulticastNetwork.host2.ppp[1].ppp rxPkOk:count 2
attr interpolationmode none
attr recordingmode count
attr source rxPkOk
attr title "packets received OK, count"
scalar MulticastNetwork.host2.ppp[1].ppp rxPkOk:sum(packetBytes) 1320
attr interpolationmode none
attr recordingmode sum(packetBytes)
attr source rxPkOk
attr title "packets received OK, sum(packetBytes)"
scalar MulticastNetwork.host2.ppp[1].ppp txPk:count 2
attr interpolationmode none
attr recordingmode count
attr source packetSentToLower
attr title "packets transmitted, count"
scalar MulticastNetwork.host2.ppp[1].ppp txPk:sum(packetBytes) 1320
attr interpolationmode none
attr recordingmode sum(packetBytes)
attr source packetSentToLower
attr title "packets transmitted, sum(packetBytes)"
scalar MulticastNetwork.host2.ppp[1].ppp rcvdPkFromHl:count 2
attr interpolationmode none
attr recordingmode count
attr source packetReceivedFromUpper
attr title "packets received from higher layer, count"
scalar MulticastNetwork.host2.ppp[1].ppp rcvdPkFromHl:sum(packetBytes) 1306
attr interpolationmode none
attr recordingmode sum(packetBytes)
attr source packetReceivedFromUpper
attr title "packets received from higher layer, sum(packetBytes)"
scalar MulticastNetwork.host2.ppp[1].ppp passedUpPk:count 2
attr interpolationmode none
attr recordingmode count
attr source packetSentToUpper
attr title "packets passed to higher layer, count"
scalar MulticastNetwork.host2.ppp[1].ppp passedUpPk:sum(packetBytes) 1306
attr interpolationmode none
attr recordingmode sum(packetBytes)
attr source packetSentToUpper
attr title "packets passed to higher layer, sum(packetBytes)"
scalar MulticastNetwork.host2.ppp[1].ppp packetDropIncorrectlyReceived:count 0
attr interpolationmode none
attr recordingmode count
attr source packetDropReasonIsIncorrectlyReceived(packetDropped)
attr title "packet drop: incorrectly received, count"
scalar MulticastNetwork.host2.ppp[1].ppp packetDropIncorrectlyReceived:sum(packetBytes) 0
attr interpolationmode none
attr recordingmode sum(packetBytes)
attr source packetDropReasonIsIncorrectlyReceived(packetDropped)
attr title "packet drop: incorrectly received, sum(packetBytes)"
scalar MulticastNetwork.host2.ppp[1].ppp packetDropInterfaceDown:count 0
attr interpolationmode none
attr recordingmode count
attr source packetDropReasonIsInterfaceDown(packetDropped)
attr title "packet drop: interface down, count"
scalar MulticastNetwork.host2.ppp[1].ppp packetDropInterfaceDown:sum(packetBytes) 0
attr interpolationmode none
attr recordingmode sum(packetBytes)
attr source packetDropReasonIsInterfaceDown(packetDropped)
attr title "packet drop: interface down, sum(packetBytes)"
par MulticastNetwork.host2.ppp[1] typename "\"inet.linklayer.ppp.PppInterface\""
par MulticastNetwork.host2.ppp[1] displayStringTextFormat "\"%a (%i)\\n%m\""
par MulticastNetwork.host2.ppp[1] recordPcap false
par MulticastNetwork.host2.ppp[1] numPcapRecorders 0
par MulticastNetwork.host2.ppp[1] interfaceTableModule "\"MulticastNetwork.host2.interfaceTable\""
scalar MulticastNetwork.host2.ppp[1] packetDropInterfaceDown:count 0
attr interpolationmode none
attr recordingmode count
attr source packetDropReasonIsInterfaceDown(packetDropped)
attr title "packet drops: interface down, count"
scalar MulticastNetwork.host2.ppp[1] packetDropInterfaceDown:sum(packetBytes) 0
attr interpolationmode none
attr recordingmode sum(packetBytes)
attr source packetDropReasonIsInterfaceDown(packetDropped)
attr title "packet drops: interface down, sum(packetBytes)"
scalar MulticastNetwork.host2.ppp[1] packetDropNoCarrier:count 0
attr interpolationmode none
attr recordingmode count
attr source packetDropReasonIsNoCarrier(packetDropped)
attr title "packet drops: no carrier, count"
scalar MulticastNetwork.host2.ppp[1] packetDropNoCarrier:sum(packetBytes) 0
attr interpolationmode none
attr recordingmode sum(packetBytes)
attr source packetDropReasonIsNoCarrier(packetDropped)
attr title "packet drops: no carrier, sum(packetBytes)"
par MulticastNetwork.host2.ipv4.transportIn.channel typename "\"ned.IdealChannel\""
par MulticastNetwork.host2.ipv4.up.out[0].channel typename "\"ned.IdealChannel\""
par MulticastNetwork.host2.ipv4.lp.out[2].channel typename "\"ned.IdealChannel\""
par MulticastNetwork.host2.ipv4.ifIn.channel typename "\"ned.IdealChannel\""
par MulticastNetwork.host2.ipv4.configurator typename "\"inet.networklayer.configurator.ipv4.Ipv4NodeConfigurator\""
par MulticastNetwork.host2.ipv4.configurator interfaceTableModule "\"MulticastNetwork.host2.interfaceTable\""
par MulticastNetwork.host2.ipv4.configurator routingTableModule "\"MulticastNetwork.host2.ipv4.routingTable\""
par MulticastNetwork.host2.ipv4.configurator networkConfiguratorModule "\"configurator\""
par MulticastNetwork.host2.ipv4.configurator configureRoutingTable true
par MulticastNetwork.host2.ipv4.routingTable typename "\"inet.networklayer.ipv4.Ipv4RoutingTable\""
par MulticastNetwork.host2.ipv4.routingTable interfaceTableModule "\"MulticastNetwork.host2.interfaceTable\""
par MulticastNetwork.host2.ipv4.routingTable routerId "\"auto\""
par MulticastNetwork.host2.ipv4.routingTable netmaskRoutes "\"*\""
par MulticastNetwork.host2.ipv4.routingTable forwarding true
par MulticastNetwork.host2.ipv4.routingTable multicastForwarding true
par MulticastNetwork.host2.ipv4.routingTable useAdminDist false
par MulticastNetwork.host2.ipv4.routingTable routingFile "\"\""
par MulticastNetwork.host2.ipv4.natTable typename "\"inet.networklayer.ipv4.Ipv4NatTable\""
par MulticastNetwork.host2.ipv4.natTable networkProtocolModule "\"^.ip\""
par MulticastNetwork.host2.ipv4.natTable config "<config/> at content:1"
par MulticastNetwork.host2.ipv4.up typename "\"inet.common.MessageDispatcher\""
par MulticastNetwork.host2.ipv4.up displayStringTextFormat "\"processed %p pk (%l)\""
par MulticastNetwork.host2.ipv4.up forwardServiceRegistration true
par MulticastNetwork.host2.ipv4.up forwardProtocolRegistration true
par MulticastNetwork.host2.ipv4.igmp typename "\"inet.networklayer.ipv4.Igmpv2\""
par MulticastNetwork.host2.ipv4.igmp interfaceTableModule "\"MulticastNetwork.host2.interfaceTable\""
par MulticastNetwork.host2.ipv4.igmp routingTableModule "\"MulticastNetwork.host2.ipv4.routingTable\""
par MulticastNetwork.host2.ipv4.igmp crcMode "\"declared\""
attr enum declared,computed
par MulticastNetwork.host2.ipv4.igmp enabled true
par MulticastNetwork.host2.ipv4.igmp robustnessVariable 2
par MulticastNetwork.host2.ipv4.igmp queryInterval 125s
attr unit s
par MulticastNetwork.host2.ipv4.igmp queryResponseInterval 10s
attr unit s
par MulticastNetwork.host2.ipv4.igmp groupMembershipInterval 260s
attr unit s
par MulticastNetwork.host2.ipv4.igmp otherQuerierPresentInterval 255s
attr unit s
par MulticastNetwork.host2.ipv4.igmp startupQueryInterval 31.25s
attr unit s
par MulticastNetwork.host2.ipv4.igmp startupQueryCount 2
par MulticastNetwork.host2.ipv4.igmp lastMemberQueryInterval 1s
attr unit s
par MulticastNetwork.host2.ipv4.igmp lastMemberQueryCount 2
par MulticastNetwork.host2.ipv4.igmp unsolicitedReportInterval 10s
attr unit s
par MulticastNetwork.host2.ipv4.icmp typename "\"inet.networklayer.ipv4.Icmp\""
par MulticastNetwork.host2.ipv4.icmp interfaceTableModule "\"MulticastNetwork.host2.interfaceTable\""
par MulticastNetwork.host2.ipv4.icmp routingTableModule "\"MulticastNetwork.host2.ipv4.routingTable\""
par MulticastNetwork.host2.ipv4.icmp crcMode "\"declared\""
attr enum declared,computed
attr mutable ""
par MulticastNetwork.host2.ipv4.icmp quoteLength 8B
attr mutable ""
attr unit B
par MulticastNetwork.host2.ipv4.mp typename "\"inet.common.MessageDispatcher\""
par MulticastNetwork.host2.ipv4.mp displayStringTextFormat "\"processed %p pk (%l)\""
par MulticastNetwork.host2.ipv4.mp forwardServiceRegistration true
par MulticastNetwork.host2.ipv4.mp forwardProtocolRegistration true
par MulticastNetwork.host2.ipv4.ip typename "\"inet.networklayer.ipv4.Ipv4\""
[...]
attr unit b
bin	-inf	0
bin	0	0
bin	100	0
bin	200	1
bin	300	0
bin	400	0
bin	500	0
bin	600	0
bin	700	0
bin	800	0
bin	900	0
bin	1000	0
bin	1100	0
bin	1200	0
bin	1300	0
bin	1400	0
bin	1500	0
bin	1600	0
bin	1700	0
bin	1800	0
bin	1900	0
bin	2000	0
bin	2100	0
bin	2200	0
bin	2300	0
bin	2400	0
bin	2500	0
bin	2600	0
bin	2700	0
bin	2800	0
bin	2900	0
bin	3000	0
bin	3100	0
bin	3200	0
bin	3300	0
bin	3400	0
bin	3500	0
bin	3600	0
bin	3700	0
bin	3800	0
bin	3900	0
bin	4000	3
bin	4100	0
bin	4200	0
bin	4300	0
bin	4400	0
bin	4500	0
bin	4600	0
bin	4700	0
bin	4800	0
bin	4900	0
bin	5000	0
bin	5100	0
bin	5200	0
bin	5300	0
bin	5400	0
bin	5500	0
bin	5600	0
bin	5700	0
bin	5800	0
bin	5900	0
bin	6000	0
bin	6100	0
bin	6200	0
bin	6300	3
bin	6400	0
bin	6500	0
bin	6600	0
bin	6700	0
bin	6800	0
bin	6900	0
bin	7000	0
bin	7100	0
bin	7200	0
bin	7300	0
bin	7400	0
bin	7500	0
bin	7600	0
bin	7700	0
bin	7800	0
bin	7900	0
bin	8000	0
scalar MulticastNetwork.router4.ppp[2].queue droppedPacketsQueueOverflow:count 0
attr interpolationmode none
attr recordingmode count
attr source packetDropReasonIsQueueOverflow(packetDropped)
attr title "dropped packets: queue overflow, count"
attr unit pk
scalar MulticastNetwork.router4.ppp[2].queue droppedPacketLengthsQueueOverflow:sum 0
attr interpolationmode none
attr recordingmode sum
attr source packetLength(packetDropReasonIsQueueOverflow(packetDropped))
attr title "dropped packet lengths: queue overflow, sum"
attr unit b
par MulticastNetwork.router4.ppp[2].ppp typename "\"inet.linklayer.ppp.Ppp\""
par MulticastNetwork.router4.ppp[2].ppp interfaceTableModule "\"MulticastNetwork.router4.interfaceTable\""
par MulticastNetwork.router4.ppp[2].ppp displayStringTextFormat "\"rate: %b\\nsent: %s, rcvd: %r\\nqueue: %q, drop: %d\""
par MulticastNetwork.router4.ppp[2].ppp sendRawBytes false
par MulticastNetwork.router4.ppp[2].ppp mtu 4470B
attr unit B
par MulticastNetwork.router4.ppp[2].ppp stopOperationExtraTime -1s
attr unit s
par MulticastNetwork.router4.ppp[2].ppp stopOperationTimeout 2s
attr unit s
scalar MulticastNetwork.router4.ppp[2].ppp transmissionState:timeavg 2.8540992975642e-05
attr interpolationmode sample-hold
attr recordingmode timeavg
attr source transmissionStateChanged
attr title "tx state, timeavg"
scalar MulticastNetwork.router4.ppp[2].ppp rxPkOk:count 7
attr interpolationmode none
attr recordingmode count
attr source rxPkOk
attr title "packets received OK, count"
scalar MulticastNetwork.router4.ppp[2].ppp rxPkOk:sum(packetBytes) 3971
attr interpolationmode none
attr recordingmode sum(packetBytes)
attr source rxPkOk
attr title "packets received OK, sum(packetBytes)"
scalar MulticastNetwork.router4.ppp[2].ppp txPk:count 7
attr interpolationmode none
attr recordingmode count
attr source packetSentToLower
attr title "packets transmitted, count"
scalar MulticastNetwork.router4.ppp[2].ppp txPk:sum(packetBytes) 3971
attr interpolationmode none
attr recordingmode sum(packetBytes)
attr source packetSentToLower
attr title "packets transmitted, sum(packetBytes)"
scalar MulticastNetwork.router4.ppp[2].ppp rcvdPkFromHl:count 7
attr interpolationmode none
attr recordingmode count
attr source packetReceivedFromUpper
attr title "packets received from higher layer, count"
scalar MulticastNetwork.router4.ppp[2].ppp rcvdPkFromHl:sum(packetBytes) 3922
attr interpolationmode none
attr recordingmode sum(packetBytes)
attr source packetReceivedFromUpper
attr title "packets received from higher layer, sum(packetBytes)"
scalar MulticastNetwork.router4.ppp[2].ppp passedUpPk:count 7
attr interpolationmode none
attr recordingmode count
attr source packetSentToUpper
attr title "packets passed to higher layer, count"
scalar MulticastNetwork.router4.ppp[2].ppp passedUpPk:sum(packetBytes) 3922
attr interpolationmode none
attr recordingmode sum(packetBytes)
attr source packetSentToUpper
attr title "packets passed to higher layer, sum(packetBytes)"
scalar MulticastNetwork.router4.ppp[2].ppp packetDropIncorrectlyReceived:count 0
attr interpolationmode none
attr recordingmode count
attr source packetDropReasonIsIncorrectlyReceived(packetDropped)
attr title "packet drop: incorrectly received, count"
scalar MulticastNetwork.router4.ppp[2].ppp packetDropIncorrectlyReceived:sum(packetBytes) 0
attr interpolationmode none
attr recordingmode sum(packetBytes)
attr source packetDropReasonIsIncorrectlyReceived(packetDropped)
attr title "packet drop: incorrectly received, sum(packetBytes)"
scalar MulticastNetwork.router4.ppp[2].ppp packetDropInterfaceDown:count 0
attr interpolationmode none
attr recordingmode count
attr source packetDropReasonIsInterfaceDown(packetDropped)
attr title "packet drop: interface down, count"
scalar MulticastNetwork.router4.ppp[2].ppp packetDropInterfaceDown:sum(packetBytes) 0
attr interpolationmode none
attr recordingmode sum(packetBytes)
attr source packetDropReasonIsInterfaceDown(packetDropped)
attr title "packet drop: interface down, sum(packetBytes)"
par MulticastNetwork.router4.ppp[2] typename "\"inet.linklayer.ppp.PppInterface\""
par MulticastNetwork.router4.ppp[2] displayStringTextFormat "\"%a (%i)\\n%m\""
par MulticastNetwork.router4.ppp[2] recordPcap false
par MulticastNetwork.router4.ppp[2] numPcapRecorders 0
par MulticastNetwork.router4.ppp[2] interfaceTableModule "\"MulticastNetwork.router4.interfaceTable\""
scalar MulticastNetwork.router4.ppp[2] packetDropInterfaceDown:count 0
attr interpolationmode none
attr recordingmode count
attr source packetDropReasonIsInterfaceDown(packetDropped)
attr title "packet drops: interface down, count"
scalar MulticastNetwork.router4.ppp[2] packetDropInterfaceDown:sum(packetBytes) 0
attr interpolationmode none
attr recordingmode sum(packetBytes)
attr source packetDropReasonIsInterfaceDown(packetDropped)
attr title "packet drops: interface down, sum(packetBytes)"
scalar MulticastNetwork.router4.ppp[2] packetDropNoCarrier:count 0
attr interpolationmode none
attr recordingmode count
attr source packetDropReasonIsNoCarrier(packetDropped)
attr title "packet drops: no carrier, count"
scalar MulticastNetwork.router4.ppp[2] packetDropNoCarrier:sum(packetBytes) 0
attr interpolationmode none
attr recordingmode sum(packetBytes)
attr source packetDropReasonIsNoCarrier(packetDropped)
attr title "packet drops: no carrier, sum(packetBytes)"
par MulticastNetwork.router4.ipv4.transportIn.channel typename "\"ned.IdealChannel\""
par MulticastNetwork.router4.ipv4.up.out[0].channel typename "\"ned.IdealChannel\""
par MulticastNetwork.router4.ipv4.lp.out[2].channel typename "\"ned.IdealChannel\""
par MulticastNetwork.router4.ipv4.ifIn.channel typename "\"ned.IdealChannel\""
par MulticastNetwork.router4.ipv4.configurator typename "\"inet.networklayer.configurator.ipv4.Ipv4NodeConfigurator\""
par MulticastNetwork.router4.ipv4.configurator interfaceTableModule "\"MulticastNetwork.router4.interfaceTable\""
par MulticastNetwork.router4.ipv4.configurator routingTableModule "\"MulticastNetwork.router4.ipv4.routingTable\""
par MulticastNetwork.router4.ipv4.configurator networkConfiguratorModule "\"configurator\""
par MulticastNetwork.router4.ipv4.configurator configureRoutingTable true
par MulticastNetwork.router4.ipv4.routingTable typename "\"inet.networklayer.ipv4.Ipv4RoutingTable\""
par MulticastNetwork.router4.ipv4.routingTable interfaceTableModule "\"MulticastNetwork.router4.interfaceTable\""
par MulticastNetwork.router4.ipv4.routingTable routerId "\"auto\""
par MulticastNetwork.router4.ipv4.routingTable netmaskRoutes "\"*\""
par MulticastNetwork.router4.ipv4.routingTable forwarding true
par MulticastNetwork.router4.ipv4.routingTable multicastForwarding true
par MulticastNetwork.router4.ipv4.routingTable useAdminDist false
par MulticastNetwork.router4.ipv4.routingTable routingFile "\"\""
par MulticastNetwork.router4.ipv4.natTable typename "\"inet.networklayer.ipv4.Ipv4NatTable\""
par MulticastNetwork.router4.ipv4.natTable networkProtocolModule "\"^.ip\""
par MulticastNetwork.router4.ipv4.natTable config "<config/> at content:1"
par MulticastNetwork.router4.ipv4.up typename "\"inet.common.MessageDispatcher\""
par MulticastNetwork.router4.ipv4.up displayStringTextFormat "\"processed %p pk (%l)\""
par MulticastNetwork.router4.ipv4.up forwardServiceRegistration true
par MulticastNetwork.router4.ipv4.up forwardProtocolRegistration true
par MulticastNetwork.router4.ipv4.igmp typename "\"inet.networklayer.ipv4.Igmpv2\""
par MulticastNetwork.router4.ipv4.igmp interfaceTableModule "\"MulticastNetwork.router4.interfaceTable\""
par MulticastNetwork.router4.ipv4.igmp routingTableModule "\"MulticastNetwork.router4.ipv4.routingTable\""
par MulticastNetwork.router4.ipv4.igmp crcMode "\"declared\""
attr enum declared,computed
par MulticastNetwork.router4.ipv4.igmp enabled true
par MulticastNetwork.router4.ipv4.igmp robustnessVariable 2
par MulticastNetwork.router4.ipv4.igmp queryInterval 125s
attr unit s
par MulticastNetwork.router4.ipv4.igmp queryResponseInterval 10s
attr unit s
par MulticastNetwork.router4.ipv4.igmp groupMembershipInterval 260s
attr unit s
par MulticastNetwork.router4.ipv4.igmp otherQuerierPresentInterval 255s
attr unit s
par MulticastNetwork.router4.ipv4.igmp startupQueryInterval 31.25s
attr unit s
par MulticastNetwork.router4.ipv4.igmp startupQueryCount 2
par MulticastNetwork.router4.ipv4.igmp lastMemberQueryInterval 1s
attr unit s
par MulticastNetwork.router4.ipv4.igmp lastMemberQueryCount 2
par MulticastNetwork.router4.ipv4.igmp unsolicitedReportInterval 10s
attr unit s
par MulticastNetwork.router4.ipv4.icmp typename "\"inet.networklayer.ipv4.Icmp\""
par MulticastNetwork.router4.ipv4.icmp interfaceTableModule "\"MulticastNetwork.router4.interfaceTable\""
par MulticastNetwork.router4.ipv4.icmp routingTableModule "\"MulticastNetwork.router4.ipv4.routingTable\""
par MulticastNetwork.router4.ipv4.icmp crcMode "\"declared\""
attr enum declared,computed
attr mutable ""
par MulticastNetwork.router4.ipv4.icmp quoteLength 8B
attr mutable ""
attr unit B
par MulticastNetwork.router4.ipv4.mp typename "\"inet.common.MessageDispatcher\""
par MulticastNetwork.router4.ipv4.mp displayStringTextFormat "\"processed %p pk (%l)\""
par MulticastNetwork.router4.ipv4.mp forwardServiceRegistration true
par MulticastNetwork.router4.ipv4.mp forwardProtocolRegistration true
par MulticastNetwork.router4.ipv4.ip typename "\"inet.networklayer.ipv4.Ipv4\""
par MulticastNetwork.router4.ipv4.ip interfaceTableModule "\"MulticastNetwork.router4.interfaceTable\""
par MulticastNetwork.router4.ipv4.ip routingTableModule "\"MulticastNetwork.router4.ipv4.routingTable\""
par MulticastNetwork.router4.ipv4.ip arpModule "\"MulticastNetwork.router4.ipv4.arp\""
par MulticastNetwork.router4.ipv4.ip icmpModule "\"MulticastNetwork.router4.ipv4.icmp\""
par MulticastNetwork.router4.ipv4.ip crcMode "\"declared\""
attr enum declared,computed
par MulticastNetwork.router4.ipv4.ip timeToLive 32
par MulticastNetwork.router4.ipv4.ip multicastTimeToLive 32
par MulticastNetwork.router4.ipv4.ip fragmentTimeout 60s
attr unit s
par MulticastNetwork.router4.ipv4.ip limitedBroadcast false
par MulticastNetwork.router4.ipv4.ip directBroadcastInterfaces "\"\""
scalar MulticastNetwork.router4.ipv4.ip packetDropAddressResolutionFailed:count 0
attr interpolationmode none
attr recordingmode count
attr source packetDropReasonIsAddressResolutionFailed(packetDropped)
attr title "packet drop: address resolution failed, count"
scalar MulticastNetwork.router4.ipv4.ip packetDropAddressResolutionFailed:sum(packetBytes) 0
attr interpolationmode none
attr recordingmode sum(packetBytes)
attr source packetDropReasonIsAddressResolutionFailed(packetDropped)
attr title "packet drop: address resolution failed, sum(packetBytes)"
scalar MulticastNetwork.router4.ipv4.ip packetDropHopLimitReached:count 0
attr interpolationmode none
attr recordingmode count
attr source packetDropReasonIsHopLimitReached(packetDropped)
attr title "packet drop: hop limit reached, count"
scalar MulticastNetwork.router4.ipv4.ip packetDropHopLimitReached:sum(packetBytes) 0
attr interpolationmode none
attr recordingmode sum(packetBytes)
attr source packetDropReasonIsHopLimitReached(packetDropped)
attr title "packet drop: hop limit reached, sum(packetBytes)"
scalar MulticastNetwork.router4.ipv4.ip packetDropForwardingDisabled:count 0
attr interpolationmode none
attr recordingmode count
attr source packetDropReasonIsForwardingDisabled(packetDropped)
attr title "packet drop: forwarding disabled, count"
scalar MulticastNetwork.router4.ipv4.ip packetDropForwardingDisabled:sum(packetBytes) 0
attr interpolationmode none
attr recordingmode sum(packetBytes)
attr source packetDropReasonIsForwardingDisabled(packetDropped)
attr title "packet drop: forwarding disabled, sum(packetBytes)"
scalar MulticastNetwork.router4.ipv4.ip packetDropNoInterfaceFound:count 0
attr interpolationmode none
attr recordingmode count
attr source packetDropReasonIsNoInterfaceFound(packetDropped)
attr title "packet drop: no interface found, count"
scalar MulticastNetwork.router4.ipv4.ip packetDropNoInterfaceFound:sum(packetBytes) 0
attr interpolationmode none
attr recordingmode sum(packetBytes)
attr source packetDropReasonIsNoInterfaceFound(packetDropped)
attr title "packet drop: no interface found, sum(packetBytes)"
scalar MulticastNetwork.router4.ipv4.ip packetDropNoRouteFound:count 0
attr interpolationmode none
attr recordingmode count
attr source packetDropReasonIsNoRouteFound(packetDropped)
attr title "packet drop: no route found, count"
scalar MulticastNetwork.router4.ipv4.ip packetDropNoRouteFound:sum(packetBytes) 0
attr interpolationmode none
attr recordingmode sum(packetBytes)
attr source packetDropReasonIsNoRouteFound(packetDropped)
attr title "packet drop: no route found, sum(packetBytes)"
scalar MulticastNetwork.router4.ipv4.ip packetDropUndefined:count 0
attr interpolationmode none
attr recordingmode count
attr source packetDropReasonIsUndefined(packetDropped)
attr title "packet drop: undefined, count"
scalar MulticastNetwork.router4.ipv4.ip packetDropUndefined:sum(packetBytes) 0
attr interpolationmode none
attr recordingmode sum(packetBytes)
attr source packetDropReasonIsUndefined(packetDropped)
attr title "packet drop: undefined, sum(packetBytes)"
par MulticastNetwork.router4.ipv4.arp typename "\"inet.networklayer.arp.ipv4.Arp\""
par MulticastNetwork.router4.ipv4.arp interfaceTableModule "\"MulticastNetwork.router4.interfaceTable\""
par MulticastNetwork.router4.ipv4.arp routingTableModule "\"MulticastNetwork.router4.ipv4.routingTable\""
par MulticastNetwork.router4.ipv4.arp retryTimeout 1s
attr unit s
par MulticastNetwork.router4.ipv4.arp retryCount 3
par MulticastNetwork.router4.ipv4.arp cacheTimeout 120s
attr unit s
par MulticastNetwork.router4.ipv4.arp proxyArpInterfaces "\"*\""
scalar MulticastNetwork.router4.ipv4.arp arpResolutionFailed:count 0
attr recordingmode count
attr title "ARP failed resolutions, count"
scalar MulticastNetwork.router4.ipv4.arp arpResolutionCompleted:count 0
attr recordingmode count
attr title "ARP completed resolutions, count"
scalar MulticastNetwork.router4.ipv4.arp arpResolutionInitiated:count 0
attr recordingmode count
attr title "ARP initiated resolutions, count"
scalar MulticastNetwork.router4.ipv4.arp arpReplySent:count 0
attr recordingmode count
attr source arpReplySent
attr title "ARP replies sent, count"
scalar MulticastNetwork.router4.ipv4.arp arpReplySent:sum(packetBytes) 0
attr recordingmode sum(packetBytes)
attr source arpReplySent
attr title "ARP replies sent, sum(packetBytes)"
scalar MulticastNetwork.router4.ipv4.arp arpRequestSent:count 0
attr recordingmode count
attr source arpRequestSent
attr title "ARP request sent, count"
scalar MulticastNetwork.router4.ipv4.arp arpRequestSent:sum(packetBytes) 0
attr recordingmode sum(packetBytes)
attr source arpRequestSent
attr title "ARP request sent, sum(packetBytes)"
par MulticastNetwork.router4.ipv4.lp typename "\"inet.common.MessageDispatcher\""
par MulticastNetwork.router4.ipv4.lp displayStringTextFormat "\"processed %p pk (%l)\""
par MulticastNetwork.router4.ipv4.lp forwardServiceRegistration true
par MulticastNetwork.router4.ipv4.lp forwardProtocolRegistration true
par MulticastNetwork.router4.ipv4 typename "\"inet.networklayer.ipv4.Ipv4NetworkLayer\""
par MulticastNetwork.router4.ipv4 forwarding true
par MulticastNetwork.router4.ipv4 multicastForwarding true
par MulticastNetwork.router4.ipv4 interfaceTableModule "\"MulticastNetwork.router4.interfaceTable\""
par MulticastNetwork.router4.ipv4 displayStringTextFormat "\"%i\""
par MulticastNetwork.router4.nl typename "\"inet.common.MessageDispatcher\""
par MulticastNetwork.router4.nl displayStringTextFormat "\"processed %p pk (%l)\""
par MulticastNetwork.router4.nl forwardServiceRegistration true
par MulticastNetwork.router4.nl forwardProtocolRegistration true
par MulticastNetwork.router4.tn typename "\"inet.common.MessageDispatcher\""
par MulticastNetwork.router4.tn displayStringTextFormat "\"processed %p pk (%l)\""
par MulticastNetwork.router4.tn forwardServiceRegistration true
par MulticastNetwork.router4.tn forwardProtocolRegistration true
par MulticastNetwork.router4.at typename "\"inet.common.MessageDispatcher\""
par MulticastNetwork.router4.at displayStringTextFormat "\"processed %p pk (%l)\""
par MulticastNetwork.router4.at forwardServiceRegistration true
par MulticastNetwork.router4.at forwardProtocolRegistration true
par MulticastNetwork.router4 typename "\"inet.node.inet.Router\""
par MulticastNetwork.router4 hasStatus false
par MulticastNetwork.router4 osgModel "\"\""
par MulticastNetwork.router4 osgModelColor "\"\""
par MulticastNetwork.router4 canvasImage "\"\""
par MulticastNetwork.router4 canvasImageColor "\"\""
par MulticastNetwork.router4 recordPcap false
par MulticastNetwork.router4 numPcapRecorders 0
par MulticastNetwork.router4 numLoInterfaces 1
par MulticastNetwork.router4 numWlanInterfaces 0
par MulticastNetwork.router4 numEthInterfaces 0
par MulticastNetwork.router4 numPppInterfaces 0
par MulticastNetwork.router4 numTunInterfaces 0
par MulticastNetwork.router4 numVirtInterfaces 0
par MulticastNetwork.router4 fcsMode "\"declared\""
attr enum declared,computed
par MulticastNetwork.router4 hasIpv4 true
par MulticastNetwork.router4 hasIpv6 false
par MulticastNetwork.router4 hasGn false
par MulticastNetwork.router4 forwarding true
par MulticastNetwork.router4 multicastForwarding true
par MulticastNetwork.router4 hasUdp false
par MulticastNetwork.router4 hasTcp false
par MulticastNetwork.router4 hasSctp false
par MulticastNetwork.router4 numApps 0
par MulticastNetwork.router4 hasEigrp false
par MulticastNetwork.router4 hasOspf false
par MulticastNetwork.router4 hasRip false
par MulticastNetwork.router4 hasBgp false
par MulticastNetwork.router4 hasPim false
par MulticastNetwork.router4 hasDhcp false
par MulticastNetwork.configurator typename "\"inet.networklayer.configurator.ipv4.Ipv4NetworkConfigurator\""
par MulticastNetwork.configurator minLinkWeight 0.001
par MulticastNetwork.configurator configureIsolatedNetworksSeparatly false
par MulticastNetwork.configurator config "<config>...</config> at /home/simu5g/workplace2/inet4.5/examples/inet/multicast//config.xml:1"
par MulticastNetwork.configurator assignAddresses true
par MulticastNetwork.configurator assignUniqueAddresses true
par MulticastNetwork.configurator assignDisjunctSubnetAddresses false
par MulticastNetwork.configurator addStaticRoutes false
par MulticastNetwork.configurator addDefaultRoutes false
par MulticastNetwork.configurator addSubnetRoutes false
par MulticastNetwork.configurator addDirectRoutes true
par MulticastNetwork.configurator optimizeRoutes false
par MulticastNetwork.configurator dumpTopology false
par MulticastNetwork.configurator dumpLinks false
par MulticastNetwork.configurator dumpAddresses true
par MulticastNetwork.configurator dumpRoutes true
par MulticastNetwork.configurator dumpConfig "\"\""
par MulticastNetwork typename "\"inet.examples.inet.multicast.MulticastNetwork\""

