file 272787 1732001178                                          
version 3
run General-0-20241119-08:25:12-2531
attr configname General
attr datetime 20241119-08:25:12
attr datetimef 20241119-082512
attr experiment General
attr inifile omnetpp.ini
attr iterationvars ""
attr iterationvarsd ""
attr iterationvarsf ""
attr measurement ""
attr network SL_train_topology.TrainTopology
attr processid 2531
attr repetition 0
attr replication #0
attr resultdir results
attr runnumber 0
attr seedset 0
config image-path ../../inet4.5/images
config network SL_train_topology.TrainTopology
config *.ECN1_1.macTable.forwardingTable "[{address:\"0A-AA-00-00-00-A1\", interface:\"eth3\"}]"
config *.ECN1_2.macTable.forwardingTable "[{address:\"0A-AA-00-00-00-A1\", interface:\"eth0\"}]"
config *.ECN2_1.macTable.forwardingTable "[{address:\"0A-AA-00-00-00-A1\", interface:\"eth1\"}]"
config *.ECN2_2.macTable.forwardingTable "[{address:\"0A-AA-00-00-00-A1\", interface:\"eth1\"}]"
config *.ECN3_1.macTable.forwardingTable "[{address:\"0A-AA-00-00-00-A1\", interface:\"eth0\"}]"
config *.ECN3_2.macTable.forwardingTable "[{address:\"0A-AA-00-00-00-A1\", interface:\"eth0\"}]"
config *.ECN4_1.macTable.forwardingTable "[{address:\"0A-AA-00-00-00-A1\", interface:\"eth0\"}]"
config *.ECN4_2.macTable.forwardingTable "[{address:\"0A-AA-00-00-00-A1\", interface:\"eth1\"}]"
config *.ECN5_1.macTable.forwardingTable "[{address:\"0A-AA-00-00-00-A1\", interface:\"eth1\"}]"
config *.ECN5_2.macTable.forwardingTable "[{address:\"0A-AA-00-00-00-A1\", interface:\"eth1\"}]"
config *.ECN6_1.macTable.forwardingTable "[{address:\"0A-AA-00-00-00-A1\", interface:\"eth0\"}]"
config *.ECN6_2.macTable.forwardingTable "[{address:\"0A-AA-00-00-00-A1\", interface:\"eth0\"}]"
config *.ECN7_1.macTable.forwardingTable "[{address:\"0A-AA-00-00-00-A1\", interface:\"eth1\"}]"
config *.ECN7_2.macTable.forwardingTable "[{address:\"0A-AA-00-00-00-A1\", interface:\"eth1\"}]"
config *.ECN8_1.macTable.forwardingTable "[{address:\"0A-AA-00-00-00-A1\", interface:\"eth1\"}]"
config *.ECN8_2.macTable.forwardingTable "[{address:\"0A-AA-00-00-00-A1\", interface:\"eth2\"}]"
config *.ETBN8_1.macTable.forwardingTable "[{address:\"0A-AA-00-00-00-A1\", interface:\"eth0\"}]"
config *.ETBN1_2.macTable.forwardingTable "[{address:\"0A-AA-00-00-00-A1\", interface:\"eth0\"}]"
config **.arp.typename GlobalArp
config *.TCU*.numApps 1
config *.TCU*.app[0].typename UdpBasicApp
config *.TCU*.app[0].packetName "\"video\""
config *.TCU*.app[0].destAddresses "\"CCU1_1\""
config *.TCU*.app[0].destPort 1001
config *.TCU*.app[0].localPort 1001
config *.TCU*.app[0].messageLength 50B
config *.TCU*.app[0].sendInterval 30ms
config *.TCU*.app[0].stopTime 1s
config *.TCU*.app[0].startTime 0s
config *.CCU1_1.numApps 1
config *.CCU1_1.app[0].typename UdpSink
config *.CCU1_1.app[0].display-name TCUSink
config *.CCU1_1.app[0].localPort 1001

vector 0 TrainTopology.CCU1_1.udp passedUpPk:vector(count) ETV
attr interpolationmode none
attr recordingmode vector(count)
attr source packetSentToUpper
attr title "packets passed up, count"
vector 1 TrainTopology.CCU1_1.udp droppedPkWrongPort:vector(count) ETV
attr interpolationmode none
attr recordingmode vector(count)
attr source packetDropReasonIsNoPortFound(packetDropped)
attr title "packets dropped (wrong port), count"
vector 2 TrainTopology.CCU1_1.udp droppedPkBadChecksum:vector(count) ETV
attr interpolationmode none
attr recordingmode vector(count)
attr source packetDropReasonIsIncorrectlyReceived(packetDropped)
attr title "packets dropped (checksum error), count"
vector 3 TrainTopology.HMI1_1.udp passedUpPk:vector(count) ETV
attr interpolationmode none
attr recordingmode vector(count)
attr source packetSentToUpper
attr title "packets passed up, count"
vector 4 TrainTopology.HMI1_1.udp droppedPkWrongPort:vector(count) ETV
attr interpolationmode none
attr recordingmode vector(count)
attr source packetDropReasonIsNoPortFound(packetDropped)
attr title "packets dropped (wrong port), count"
vector 5 TrainTopology.HMI1_1.udp droppedPkBadChecksum:vector(count) ETV
attr interpolationmode none
attr recordingmode vector(count)
attr source packetDropReasonIsIncorrectlyReceived(packetDropped)
attr title "packets dropped (checksum error), count"
vector 6 TrainTopology.WTD1.udp passedUpPk:vector(count) ETV
attr interpolationmode none
attr recordingmode vector(count)
attr source packetSentToUpper
attr title "packets passed up, count"
vector 7 TrainTopology.WTD1.udp droppedPkWrongPort:vector(count) ETV
attr interpolationmode none
attr recordingmode vector(count)
attr source packetDropReasonIsNoPortFound(packetDropped)
attr title "packets dropped (wrong port), count"
vector 8 TrainTopology.WTD1.udp droppedPkBadChecksum:vector(count) ETV
attr interpolationmode none
attr recordingmode vector(count)
attr source packetDropReasonIsIncorrectlyReceived(packetDropped)
attr title "packets dropped (checksum error), count"
vector 9 TrainTopology.IOM1_1.udp passedUpPk:vector(count) ETV
attr interpolationmode none
attr recordingmode vector(count)
attr source packetSentToUpper
attr title "packets passed up, count"
vector 10 TrainTopology.IOM1_1.udp droppedPkWrongPort:vector(count) ETV
attr interpolationmode none
attr recordingmode vector(count)
attr source packetDropReasonIsNoPortFound(packetDropped)
attr title "packets dropped (wrong port), count"
vector 11 TrainTopology.IOM1_1.udp droppedPkBadChecksum:vector(count) ETV
attr interpolationmode none
attr recordingmode vector(count)
attr source packetDropReasonIsIncorrectlyReceived(packetDropped)
attr title "packets dropped (checksum error), count"
vector 12 TrainTopology.ATDS1.udp passedUpPk:vector(count) ETV
attr interpolationmode none
attr recordingmode vector(count)
attr source packetSentToUpper
attr title "packets passed up, count"
vector 13 TrainTopology.ATDS1.udp droppedPkWrongPort:vector(count) ETV
attr interpolationmode none
attr recordingmode vector(count)
attr source packetDropReasonIsNoPortFound(packetDropped)
attr title "packets dropped (wrong port), count"
vector 14 TrainTopology.ATDS1.udp droppedPkBadChecksum:vector(count) ETV
attr interpolationmode none
attr recordingmode vector(count)
attr source packetDropReasonIsIncorrectlyReceived(packetDropped)
attr title "packets dropped (checksum error), count"
vector 15 TrainTopology.BC1_1.udp passedUpPk:vector(count) ETV
attr interpolationmode none
attr recordingmode vector(count)
attr source packetSentToUpper
attr title "packets passed up, count"
vector 16 TrainTopology.BC1_1.udp droppedPkWrongPort:vector(count) ETV
attr interpolationmode none
attr recordingmode vector(count)
attr source packetDropReasonIsNoPortFound(packetDropped)
attr title "packets dropped (wrong port), count"
vector 17 TrainTopology.BC1_1.udp droppedPkBadChecksum:vector(count) ETV
attr interpolationmode none
attr recordingmode vector(count)
attr source packetDropReasonIsIncorrectlyReceived(packetDropped)
attr title "packets dropped (checksum error), count"
vector 18 TrainTopology.BIDS1.udp passedUpPk:vector(count) ETV
attr interpolationmode none
attr recordingmode vector(count)
attr source packetSentToUpper
attr title "packets passed up, count"
vector 19 TrainTopology.BIDS1.udp droppedPkWrongPort:vector(count) ETV
attr interpolationmode none
attr recordingmode vector(count)
attr source packetDropReasonIsNoPortFound(packetDropped)
attr title "packets dropped (wrong port), count"
vector 20 TrainTopology.BIDS1.udp droppedPkBadChecksum:vector(count) ETV
attr interpolationmode none
attr recordingmode vector(count)
attr source packetDropReasonIsIncorrectlyReceived(packetDropped)
attr title "packets dropped (checksum error), count"
vector 21 TrainTopology.WNDS1.udp passedUpPk:vector(count) ETV
attr interpolationmode none
attr recordingmode vector(count)
attr source packetSentToUpper
attr title "packets passed up, count"
vector 22 TrainTopology.WNDS1.udp droppedPkWrongPort:vector(count) ETV
attr interpolationmode none
attr recordingmode vector(count)
attr source packetDropReasonIsNoPortFound(packetDropped)
attr title "packets dropped (wrong port), count"
vector 23 TrainTopology.WNDS1.udp droppedPkBadChecksum:vector(count) ETV
attr interpolationmode none
attr recordingmode vector(count)
attr source packetDropReasonIsIncorrectlyReceived(packetDropped)
attr title "packets dropped (checksum error), count"
vector 24 TrainTopology.BVDS1.udp passedUpPk:vector(count) ETV
attr interpolationmode none
attr recordingmode vector(count)
attr source packetSentToUpper
attr title "packets passed up, count"
vector 25 TrainTopology.BVDS1.udp droppedPkWrongPort:vector(count) ETV
attr interpolationmode none
attr recordingmode vector(count)
attr source packetDropReasonIsNoPortFound(packetDropped)
attr title "packets dropped (wrong port), count"
vector 26 TrainTopology.BVDS1.udp droppedPkBadChecksum:vector(count) ETV
attr interpolationmode none
attr recordingmode vector(count)
attr source packetDropReasonIsIncorrectlyReceived(packetDropped)
attr title "packets dropped (checksum error), count"
vector 27 TrainTopology.CCU1_2.udp passedUpPk:vector(count) ETV
attr interpolationmode none
attr recordingmode vector(count)
attr source packetSentToUpper
attr title "packets passed up, count"
vector 28 TrainTopology.CCU1_2.udp droppedPkWrongPort:vector(count) ETV
attr interpolationmode none
attr recordingmode vector(count)
attr source packetDropReasonIsNoPortFound(packetDropped)
attr title "packets dropped (wrong port), count"
vector 29 TrainTopology.CCU1_2.udp droppedPkBadChecksum:vector(count) ETV
attr interpolationmode none
attr recordingmode vector(count)
attr source packetDropReasonIsIncorrectlyReceived(packetDropped)
attr title "packets dropped (checksum error), count"
vector 30 TrainTopology.HMI1_2.udp passedUpPk:vector(count) ETV
attr interpolationmode none
attr recordingmode vector(count)
attr source packetSentToUpper
attr title "packets passed up, count"
vector 31 TrainTopology.HMI1_2.udp droppedPkWrongPort:vector(count) ETV
attr interpolationmode none
attr recordingmode vector(count)
attr source packetDropReasonIsNoPortFound(packetDropped)
attr title "packets dropped (wrong port), count"
vector 32 TrainTopology.HMI1_2.udp droppedPkBadChecksum:vector(count) ETV
attr interpolationmode none
attr recordingmode vector(count)
attr source packetDropReasonIsIncorrectlyReceived(packetDropped)
attr title "packets dropped (checksum error), count"
vector 33 TrainTopology.IOM1_2.udp passedUpPk:vector(count) ETV
attr interpolationmode none
attr recordingmode vector(count)
attr source packetSentToUpper
attr title "packets passed up, count"
vector 34 TrainTopology.IOM1_2.udp droppedPkWrongPort:vector(count) ETV
attr interpolationmode none
attr recordingmode vector(count)
attr source packetDropReasonIsNoPortFound(packetDropped)
attr title "packets dropped (wrong port), count"
vector 35 TrainTopology.IOM1_2.udp droppedPkBadChecksum:vector(count) ETV
attr interpolationmode none
attr recordingmode vector(count)
attr source packetDropReasonIsIncorrectlyReceived(packetDropped)
attr title "packets dropped (checksum error), count"
vector 36 TrainTopology.BCU1.udp passedUpPk:vector(count) ETV
attr interpolationmode none
attr recordingmode vector(count)
attr source packetSentToUpper
attr title "packets passed up, count"
vector 37 TrainTopology.BCU1.udp droppedPkWrongPort:vector(count) ETV
attr interpolationmode none
attr recordingmode vector(count)
attr source packetDropReasonIsNoPortFound(packetDropped)
attr title "packets dropped (wrong port), count"
vector 38 TrainTopology.BCU1.udp droppedPkBadChecksum:vector(count) ETV
attr interpolationmode none
attr recordingmode vector(count)
attr source packetDropReasonIsIncorrectlyReceived(packetDropped)
attr title "packets dropped (checksum error), count"
vector 39 TrainTopology.HVAC1.udp passedUpPk:vector(count) ETV
attr interpolationmode none
attr recordingmode vector(count)
attr source packetSentToUpper
attr title "packets passed up, count"
vector 40 TrainTopology.HVAC1.udp droppedPkWrongPort:vector(count) ETV
attr interpolationmode none
attr recordingmode vector(count)
attr source packetDropReasonIsNoPortFound(packetDropped)
attr title "packets dropped (wrong port), count"
vector 41 TrainTopology.HVAC1.udp droppedPkBadChecksum:vector(count) ETV
attr interpolationmode none
attr recordingmode vector(count)
attr source packetDropReasonIsIncorrectlyReceived(packetDropped)
attr title "packets dropped (checksum error), count"
vector 42 TrainTopology.FAS1.udp passedUpPk:vector(count) ETV
attr interpolationmode none
attr recordingmode vector(count)
attr source packetSentToUpper
attr title "packets passed up, count"
vector 43 TrainTopology.FAS1.udp droppedPkWrongPort:vector(count) ETV
attr interpolationmode none
attr recordingmode vector(count)
attr source packetDropReasonIsNoPortFound(packetDropped)
attr title "packets dropped (wrong port), count"
vector 44 TrainTopology.FAS1.udp droppedPkBadChecksum:vector(count) ETV
attr interpolationmode none
attr recordingmode vector(count)
attr source packetDropReasonIsIncorrectlyReceived(packetDropped)
attr title "packets dropped (checksum error), count"
vector 45 TrainTopology.DCU1.udp passedUpPk:vector(count) ETV
attr interpolationmode none
attr recordingmode vector(count)
attr source packetSentToUpper
attr title "packets passed up, count"
vector 46 TrainTopology.DCU1.udp droppedPkWrongPort:vector(count) ETV
attr interpolationmode none
attr recordingmode vector(count)
attr source packetDropReasonIsNoPortFound(packetDropped)
attr title "packets dropped (wrong port), count"
vector 47 TrainTopology.DCU1.udp droppedPkBadChecksum:vector(count) ETV
attr interpolationmode none
attr recordingmode vector(count)
attr source packetDropReasonIsIncorrectlyReceived(packetDropped)
attr title "packets dropped (checksum error), count"
vector 48 TrainTopology.BC1_2.udp passedUpPk:vector(count) ETV
attr interpolationmode none
attr recordingmode vector(count)
attr source packetSentToUpper
attr title "packets passed up, count"
vector 49 TrainTopology.BC1_2.udp droppedPkWrongPort:vector(count) ETV
attr interpolationmode none
attr recordingmode vector(count)
attr source packetDropReasonIsNoPortFound(packetDropped)
attr title "packets dropped (wrong port), count"
vector 50 TrainTopology.BC1_2.udp droppedPkBadChecksum:vector(count) ETV
attr interpolationmode none
attr recordingmode vector(count)
attr source packetDropReasonIsIncorrectlyReceived(packetDropped)
attr title "packets dropped (checksum error), count"
vector 51 TrainTopology.IOM2_1.udp passedUpPk:vector(count) ETV
attr interpolationmode none
attr recordingmode vector(count)
attr source packetSentToUpper
attr title "packets passed up, count"
vector 52 TrainTopology.IOM2_1.udp droppedPkWrongPort:vector(count) ETV
attr interpolationmode none
attr recordingmode vector(count)
attr source packetDropReasonIsNoPortFound(packetDropped)
attr title "packets dropped (wrong port), count"
vector 53 TrainTopology.IOM2_1.udp droppedPkBadChecksum:vector(count) ETV
attr interpolationmode none
attr recordingmode vector(count)
attr source packetDropReasonIsIncorrectlyReceived(packetDropped)
attr title "packets dropped (checksum error), count"
vector 54 TrainTopology.BCU2.udp passedUpPk:vector(count) ETV
attr interpolationmode none
attr recordingmode vector(count)
attr source packetSentToUpper
attr title "packets passed up, count"
vector 55 TrainTopology.BCU2.udp droppedPkWrongPort:vector(count) ETV
attr interpolationmode none
attr recordingmode vector(count)
attr source packetDropReasonIsNoPortFound(packetDropped)
attr title "packets dropped (wrong port), count"
vector 56 TrainTopology.BCU2.udp droppedPkBadChecksum:vector(count) ETV
attr interpolationmode none
attr recordingmode vector(count)
attr source packetDropReasonIsIncorrectlyReceived(packetDropped)
attr title "packets dropped (checksum error), count"
vector 57 TrainTopology.HVAC2.udp passedUpPk:vector(count) ETV
attr interpolationmode none
attr recordingmode vector(count)
attr source packetSentToUpper
attr title "packets passed up, count"
vector 58 TrainTopology.HVAC2.udp droppedPkWrongPort:vector(count) ETV
attr interpolationmode none
attr recordingmode vector(count)
attr source packetDropReasonIsNoPortFound(packetDropped)
attr title "packets dropped (wrong port), count"
vector 59 TrainTopology.HVAC2.udp droppedPkBadChecksum:vector(count) ETV
attr interpolationmode none
attr recordingmode vector(count)
attr source packetDropReasonIsIncorrectlyReceived(packetDropped)
attr title "packets dropped (checksum error), count"
vector 60 TrainTopology.FAS2.udp passedUpPk:vector(count) ETV
attr interpolationmode none
attr recordingmode vector(count)
attr source packetSentToUpper
attr title "packets passed up, count"
vector 61 TrainTopology.FAS2.udp droppedPkWrongPort:vector(count) ETV
attr interpolationmode none
attr recordingmode vector(count)
attr source packetDropReasonIsNoPortFound(packetDropped)
attr title "packets dropped (wrong port), count"
vector 62 TrainTopology.FAS2.udp droppedPkBadChecksum:vector(count) ETV
attr interpolationmode none
attr recordingmode vector(count)
attr source packetDropReasonIsIncorrectlyReceived(packetDropped)
attr title "packets dropped (checksum error), count"
vector 63 TrainTopology.DCU2.udp passedUpPk:vector(count) ETV
attr interpolationmode none
attr recordingmode vector(count)
attr source packetSentToUpper
attr title "packets passed up, count"
vector 64 TrainTopology.DCU2.udp droppedPkWrongPort:vector(count) ETV
attr interpolationmode none
attr recordingmode vector(count)
attr source packetDropReasonIsNoPortFound(packetDropped)
attr title "packets dropped (wrong port), count"
vector 65 TrainTopology.DCU2.udp droppedPkBadChecksum:vector(count) ETV
attr interpolationmode none
attr recordingmode vector(count)
attr source packetDropReasonIsIncorrectlyReceived(packetDropped)
attr title "packets dropped (checksum error), count"
vector 66 TrainTopology.ATDS2.udp passedUpPk:vector(count) ETV
attr interpolationmode none
attr recordingmode vector(count)
attr source packetSentToUpper
attr title "packets passed up, count"
vector 67 TrainTopology.ATDS2.udp droppedPkWrongPort:vector(count) ETV
attr interpolationmode none
attr recordingmode vector(count)
attr source packetDropReasonIsNoPortFound(packetDropped)
attr title "packets dropped (wrong port), count"
vector 68 TrainTopology.ATDS2.udp droppedPkBadChecksum:vector(count) ETV
attr interpolationmode none
attr recordingmode vector(count)
attr source packetDropReasonIsIncorrectlyReceived(packetDropped)
attr title "packets dropped (checksum error), count"
vector 69 TrainTopology.TCU2.udp passedUpPk:vector(count) ETV
attr interpolationmode none
attr recordingmode vector(count)
attr source packetSentToUpper
attr title "packets passed up, count"
vector 70 TrainTopology.TCU2.udp droppedPkWrongPort:vector(count) ETV
attr interpolationmode none
attr recordingmode vector(count)
attr source packetDropReasonIsNoPortFound(packetDropped)
attr title "packets dropped (wrong port), count"
vector 71 TrainTopology.TCU2.udp droppedPkBadChecksum:vector(count) ETV
attr interpolationmode none
attr recordingmode vector(count)
attr source packetDropReasonIsIncorrectlyReceived(packetDropped)
attr title "packets dropped (checksum error), count"
vector 72 TrainTopology.IOM2_2.udp passedUpPk:vector(count) ETV
attr interpolationmode none
attr recordingmode vector(count)
attr source packetSentToUpper
attr title "packets passed up, count"
vector 73 TrainTopology.IOM2_2.udp droppedPkWrongPort:vector(count) ETV
attr interpolationmode none
attr recordingmode vector(count)
attr source packetDropReasonIsNoPortFound(packetDropped)
attr title "packets dropped (wrong port), count"
vector 74 TrainTopology.IOM2_2.udp droppedPkBadChecksum:vector(count) ETV
attr interpolationmode none
attr recordingmode vector(count)
attr source packetDropReasonIsIncorrectlyReceived(packetDropped)
attr title "packets dropped (checksum error), count"
vector 75 TrainTopology.BIDS2.udp passedUpPk:vector(count) ETV
attr interpolationmode none
attr recordingmode vector(count)
attr source packetSentToUpper
attr title "packets passed up, count"
vector 76 TrainTopology.BIDS2.udp droppedPkWrongPort:vector(count) ETV
attr interpolationmode none
attr recordingmode vector(count)
attr source packetDropReasonIsNoPortFound(packetDropped)
attr title "packets dropped (wrong port), count"
vector 77 TrainTopology.BIDS2.udp droppedPkBadChecksum:vector(count) ETV
attr interpolationmode none
attr recordingmode vector(count)
attr source packetDropReasonIsIncorrectlyReceived(packetDropped)
attr title "packets dropped (checksum error), count"
vector 78 TrainTopology.WNDS2.udp passedUpPk:vector(count) ETV
attr interpolationmode none
attr recordingmode vector(count)
attr source packetSentToUpper
attr title "packets passed up, count"
vector 79 TrainTopology.WNDS2.udp droppedPkWrongPort:vector(count) ETV
attr interpolationmode none
attr recordingmode vector(count)
attr source packetDropReasonIsNoPortFound(packetDropped)
attr title "packets dropped (wrong port), count"
vector 80 TrainTopology.WNDS2.udp droppedPkBadChecksum:vector(count) ETV
attr interpolationmode none
attr recordingmode vector(count)
attr source packetDropReasonIsIncorrectlyReceived(packetDropped)
attr title "packets dropped (checksum error), count"
vector 81 TrainTopology.BVDS2.udp passedUpPk:vector(count) ETV
attr interpolationmode none
attr recordingmode vector(count)
attr source packetSentToUpper
attr title "packets passed up, count"
vector 82 TrainTopology.BVDS2.udp droppedPkWrongPort:vector(count) ETV
attr interpolationmode none
attr recordingmode vector(count)
attr source packetDropReasonIsNoPortFound(packetDropped)
attr title "packets dropped (wrong port), count"
vector 83 TrainTopology.BVDS2.udp droppedPkBadChecksum:vector(count) ETV
attr interpolationmode none
attr recordingmode vector(count)
attr source packetDropReasonIsIncorrectlyReceived(packetDropped)
attr title "packets dropped (checksum error), count"
vector 84 TrainTopology.GVDS2.udp passedUpPk:vector(count) ETV
attr interpolationmode none
attr recordingmode vector(count)
attr source packetSentToUpper
attr title "packets passed up, count"
vector 85 TrainTopology.GVDS2.udp droppedPkWrongPort:vector(count) ETV
attr interpolationmode none
attr recordingmode vector(count)
attr source packetDropReasonIsNoPortFound(packetDropped)
attr title "packets dropped (wrong port), count"
vector 86 TrainTopology.GVDS2.udp droppedPkBadChecksum:vector(count) ETV
attr interpolationmode none
attr recordingmode vector(count)
attr source packetDropReasonIsIncorrectlyReceived(packetDropped)
attr title "packets dropped (checksum error), count"
vector 87 TrainTopology.IOM3_1.udp passedUpPk:vector(count) ETV
attr interpolationmode none
attr recordingmode vector(count)
attr source packetSentToUpper
attr title "packets passed up, count"
vector 88 TrainTopology.IOM3_1.udp droppedPkWrongPort:vector(count) ETV
attr interpolationmode none
attr recordingmode vector(count)
attr source packetDropReasonIsNoPortFound(packetDropped)
attr title "packets dropped (wrong port), count"
vector 89 TrainTopology.IOM3_1.udp droppedPkBadChecksum:vector(count) ETV
attr interpolationmode none
attr recordingmode vector(count)
attr source packetDropReasonIsIncorrectlyReceived(packetDropped)
attr title "packets dropped (checksum error), count"
vector 90 TrainTopology.BCU3.udp passedUpPk:vector(count) ETV
attr interpolationmode none
attr recordingmode vector(count)
attr source packetSentToUpper
attr title "packets passed up, count"
vector 91 TrainTopology.BCU3.udp droppedPkWrongPort:vector(count) ETV
attr interpolationmode none
attr recordingmode vector(count)
attr source packetDropReasonIsNoPortFound(packetDropped)
attr title "packets dropped (wrong port), count"
vector 92 TrainTopology.BCU3.udp droppedPkBadChecksum:vector(count) ETV
attr interpolationmode none
attr recordingmode vector(count)
attr source packetDropReasonIsIncorrectlyReceived(packetDropped)
attr title "packets dropped (checksum error), count"
vector 93 TrainTopology.HVAC3.udp passedUpPk:vector(count) ETV
attr interpolationmode none
attr recordingmode vector(count)
attr source packetSentToUpper
attr title "packets passed up, count"
vector 94 TrainTopology.HVAC3.udp droppedPkWrongPort:vector(count) ETV
attr interpolationmode none
attr recordingmode vector(count)
attr source packetDropReasonIsNoPortFound(packetDropped)
attr title "packets dropped (wrong port), count"
vector 95 TrainTopology.HVAC3.udp droppedPkBadChecksum:vector(count) ETV
attr interpolationmode none
attr recordingmode vector(count)
attr source packetDropReasonIsIncorrectlyReceived(packetDropped)
attr title "packets dropped (checksum error), count"
vector 96 TrainTopology.FAS3.udp passedUpPk:vector(count) ETV
attr interpolationmode none
attr recordingmode vector(count)
attr source packetSentToUpper
attr title "packets passed up, count"
vector 97 TrainTopology.FAS3.udp droppedPkWrongPort:vector(count) ETV
attr interpolationmode none
attr recordingmode vector(count)
attr source packetDropReasonIsNoPortFound(packetDropped)
attr title "packets dropped (wrong port), count"
vector 98 TrainTopology.FAS3.udp droppedPkBadChecksum:vector(count) ETV
attr interpolationmode none
attr recordingmode vector(count)
attr source packetDropReasonIsIncorrectlyReceived(packetDropped)
attr title "packets dropped (checksum error), count"
vector 99 TrainTopology.DCU3.udp passedUpPk:vector(count) ETV
attr interpolationmode none
attr recordingmode vector(count)
attr source packetSentToUpper
attr title "packets passed up, count"
vector 100 TrainTopology.DCU3.udp droppedPkWrongPort:vector(count) ETV
attr interpolationmode none
attr recordingmode vector(count)
attr source packetDropReasonIsNoPortFound(packetDropped)
attr title "packets dropped (wrong port), count"
vector 101 TrainTopology.DCU3.udp droppedPkBadChecksum:vector(count) ETV
attr interpolationmode none
attr recordingmode vector(count)
attr source packetDropReasonIsIncorrectlyReceived(packetDropped)
attr title "packets dropped (checksum error), count"
vector 102 TrainTopology.ATDS3.udp passedUpPk:vector(count) ETV
attr interpolationmode none
attr recordingmode vector(count)
attr source packetSentToUpper
attr title "packets passed up, count"
vector 103 TrainTopology.ATDS3.udp droppedPkWrongPort:vector(count) ETV
attr interpolationmode none
attr recordingmode vector(count)
attr source packetDropReasonIsNoPortFound(packetDropped)
attr title "packets dropped (wrong port), count"
vector 104 TrainTopology.ATDS3.udp droppedPkBadChecksum:vector(count) ETV
attr interpolationmode none
attr recordingmode vector(count)
attr source packetDropReasonIsIncorrectlyReceived(packetDropped)
attr title "packets dropped (checksum error), count"
vector 105 TrainTopology.IOM3_2.udp passedUpPk:vector(count) ETV
attr interpolationmode none
attr recordingmode vector(count)
attr source packetSentToUpper
attr title "packets passed up, count"
vector 106 TrainTopology.IOM3_2.udp droppedPkWrongPort:vector(count) ETV
attr interpolationmode none
attr recordingmode vector(count)
attr source packetDropReasonIsNoPortFound(packetDropped)
attr title "packets dropped (wrong port), count"
vector 107 TrainTopology.IOM3_2.udp droppedPkBadChecksum:vector(count) ETV
attr interpolationmode none
attr recordingmode vector(count)
attr source packetDropReasonIsIncorrectlyReceived(packetDropped)
attr title "packets dropped (checksum error), count"
vector 108 TrainTopology.BIDS3.udp passedUpPk:vector(count) ETV
attr interpolationmode none
attr recordingmode vector(count)
attr source packetSentToUpper
attr title "packets passed up, count"
vector 109 TrainTopology.BIDS3.udp droppedPkWrongPort:vector(count) ETV
attr interpolationmode none
attr recordingmode vector(count)
attr source packetDropReasonIsNoPortFound(packetDropped)
attr title "packets dropped (wrong port), count"
vector 110 TrainTopology.BIDS3.udp droppedPkBadChecksum:vector(count) ETV
attr interpolationmode none
attr recordingmode vector(count)
attr source packetDropReasonIsIncorrectlyReceived(packetDropped)
attr title "packets dropped (checksum error), count"
vector 111 TrainTopology.WNDS3.udp passedUpPk:vector(count) ETV
attr interpolationmode none
attr recordingmode vector(count)
attr source packetSentToUpper
attr title "packets passed up, count"
vector 112 TrainTopology.WNDS3.udp droppedPkWrongPort:vector(count) ETV
attr interpolationmode none
attr recordingmode vector(count)
attr source packetDropReasonIsNoPortFound(packetDropped)
attr title "packets dropped (wrong port), count"
vector 113 TrainTopology.WNDS3.udp droppedPkBadChecksum:vector(count) ETV
attr interpolationmode none
attr recordingmode vector(count)
attr source packetDropReasonIsIncorrectlyReceived(packetDropped)
attr title "packets dropped (checksum error), count"
vector 114 TrainTopology.BVDS3.udp passedUpPk:vector(count) ETV
attr interpolationmode none
attr recordingmode vector(count)
attr source packetSentToUpper
attr title "packets passed up, count"
vector 115 TrainTopology.BVDS3.udp droppedPkWrongPort:vector(count) ETV
attr interpolationmode none
attr recordingmode vector(count)
attr source packetDropReasonIsNoPortFound(packetDropped)
attr title "packets dropped (wrong port), count"
vector 116 TrainTopology.BVDS3.udp droppedPkBadChecksum:vector(count) ETV
attr interpolationmode none
attr recordingmode vector(count)
attr source packetDropReasonIsIncorrectlyReceived(packetDropped)
attr title "packets dropped (checksum error), count"
vector 117 TrainTopology.IOM4_1.udp passedUpPk:vector(count) ETV
attr interpolationmode none
attr recordingmode vector(count)
attr source packetSentToUpper
attr title "packets passed up, count"
vector 118 TrainTopology.IOM4_1.udp droppedPkWrongPort:vector(count) ETV
attr interpolationmode none
attr recordingmode vector(count)
attr source packetDropReasonIsNoPortFound(packetDropped)
attr title "packets dropped (wrong port), count"
vector 119 TrainTopology.IOM4_1.udp droppedPkBadChecksum:vector(count) ETV
attr interpolationmode none
attr recordingmode vector(count)
attr source packetDropReasonIsIncorrectlyReceived(packetDropped)
attr title "packets dropped (checksum error), count"
vector 120 TrainTopology.BCU4.udp passedUpPk:vector(count) ETV
attr interpolationmode none
attr recordingmode vector(count)
attr source packetSentToUpper
attr title "packets passed up, count"
vector 121 TrainTopology.BCU4.udp droppedPkWrongPort:vector(count) ETV
attr interpolationmode none
attr recordingmode vector(count)
attr source packetDropReasonIsNoPortFound(packetDropped)
attr title "packets dropped (wrong port), count"
vector 122 TrainTopology.BCU4.udp droppedPkBadChecksum:vector(count) ETV
attr interpolationmode none
attr recordingmode vector(count)
attr source packetDropReasonIsIncorrectlyReceived(packetDropped)
attr title "packets dropped (checksum error), count"
vector 123 TrainTopology.HVAC4.udp passedUpPk:vector(count) ETV
attr interpolationmode none
attr recordingmode vector(count)
attr source packetSentToUpper
attr title "packets passed up, count"
vector 124 TrainTopology.HVAC4.udp droppedPkWrongPort:vector(count) ETV
attr interpolationmode none
attr recordingmode vector(count)
attr source packetDropReasonIsNoPortFound(packetDropped)
attr title "packets dropped (wrong port), count"
vector 125 TrainTopology.HVAC4.udp droppedPkBadChecksum:vector(count) ETV
attr interpolationmode none
attr recordingmode vector(count)
attr source packetDropReasonIsIncorrectlyReceived(packetDropped)
attr title "packets dropped (checksum error), count"
vector 126 TrainTopology.FAS4.udp passedUpPk:vector(count) ETV
attr interpolationmode none
attr recordingmode vector(count)
attr source packetSentToUpper
attr title "packets passed up, count"
vector 127 TrainTopology.FAS4.udp droppedPkWrongPort:vector(count) ETV
attr interpolationmode none
attr recordingmode vector(count)
attr source packetDropReasonIsNoPortFound(packetDropped)
attr title "packets dropped (wrong port), count"
vector 128 TrainTopology.FAS4.udp droppedPkBadChecksum:vector(count) ETV
attr interpolationmode none
attr recordingmode vector(count)
attr source packetDropReasonIsIncorrectlyReceived(packetDropped)
attr title "packets dropped (checksum error), count"
vector 129 TrainTopology.DCU4.udp passedUpPk:vector(count) ETV
attr interpolationmode none
attr recordingmode vector(count)
attr source packetSentToUpper
attr title "packets passed up, count"
vector 130 TrainTopology.DCU4.udp droppedPkWrongPort:vector(count) ETV
attr interpolationmode none
attr recordingmode vector(count)
attr source packetDropReasonIsNoPortFound(packetDropped)
attr title "packets dropped (wrong port), count"
vector 131 TrainTopology.DCU4.udp droppedPkBadChecksum:vector(count) ETV
attr interpolationmode none
attr recordingmode vector(count)
attr source packetDropReasonIsIncorrectlyReceived(packetDropped)
attr title "packets dropped (checksum error), count"
vector 132 TrainTopology.ATDS4.udp passedUpPk:vector(count) ETV
attr interpolationmode none
attr recordingmode vector(count)
attr source packetSentToUpper
attr title "packets passed up, count"
vector 133 TrainTopology.ATDS4.udp droppedPkWrongPort:vector(count) ETV
attr interpolationmode none
attr recordingmode vector(count)
attr source packetDropReasonIsNoPortFound(packetDropped)
attr title "packets dropped (wrong port), count"
vector 134 TrainTopology.ATDS4.udp droppedPkBadChecksum:vector(count) ETV
attr interpolationmode none
attr recordingmode vector(count)
attr source packetDropReasonIsIncorrectlyReceived(packetDropped)
attr title "packets dropped (checksum error), count"
vector 135 TrainTopology.TCU4.udp passedUpPk:vector(count) ETV
attr interpolationmode none
attr recordingmode vector(count)
attr source packetSentToUpper
attr title "packets passed up, count"
vector 136 TrainTopology.TCU4.udp droppedPkWrongPort:vector(count) ETV
attr interpolationmode none
attr recordingmode vector(count)
attr source packetDropReasonIsNoPortFound(packetDropped)
attr title "packets dropped (wrong port), count"
vector 137 TrainTopology.TCU4.udp droppedPkBadChecksum:vector(count) ETV
attr interpolationmode none
attr recordingmode vector(count)
attr source packetDropReasonIsIncorrectlyReceived(packetDropped)
attr title "packets dropped (checksum error), count"
vector 138 TrainTopology.IOM4_2.udp passedUpPk:vector(count) ETV
attr interpolationmode none
attr recordingmode vector(count)
attr source packetSentToUpper
attr title "packets passed up, count"
vector 139 TrainTopology.IOM4_2.udp droppedPkWrongPort:vector(count) ETV
attr interpolationmode none
attr recordingmode vector(count)
attr source packetDropReasonIsNoPortFound(packetDropped)
attr title "packets dropped (wrong port), count"
vector 140 TrainTopology.IOM4_2.udp droppedPkBadChecksum:vector(count) ETV
attr interpolationmode none
attr recordingmode vector(count)
attr source packetDropReasonIsIncorrectlyReceived(packetDropped)
attr title "packets dropped (checksum error), count"
vector 141 TrainTopology.BIDS4.udp passedUpPk:vector(count) ETV
attr interpolationmode none
attr recordingmode vector(count)
attr source packetSentToUpper
attr title "packets passed up, count"
vector 142 TrainTopology.BIDS4.udp droppedPkWrongPort:vector(count) ETV
attr interpolationmode none
attr recordingmode vector(count)
attr source packetDropReasonIsNoPortFound(packetDropped)
attr title "packets dropped (wrong port), count"
vector 143 TrainTopology.BIDS4.udp droppedPkBadChecksum:vector(count) ETV
attr interpolationmode none
attr recordingmode vector(count)
attr source packetDropReasonIsIncorrectlyReceived(packetDropped)
attr title "packets dropped (checksum error), count"
vector 144 TrainTopology.WNDS4.udp passedUpPk:vector(count) ETV
attr interpolationmode none
attr recordingmode vector(count)
attr source packetSentToUpper
attr title "packets passed up, count"
vector 145 TrainTopology.WNDS4.udp droppedPkWrongPort:vector(count) ETV
attr interpolationmode none
attr recordingmode vector(count)
attr source packetDropReasonIsNoPortFound(packetDropped)
attr title "packets dropped (wrong port), count"
vector 146 TrainTopology.WNDS4.udp droppedPkBadChecksum:vector(count) ETV
attr interpolationmode none
attr recordingmode vector(count)
attr source packetDropReasonIsIncorrectlyReceived(packetDropped)
attr title "packets dropped (checksum error), count"
vector 147 TrainTopology.BVDS4.udp passedUpPk:vector(count) ETV
attr interpolationmode none
attr recordingmode vector(count)
attr source packetSentToUpper
attr title "packets passed up, count"
vector 148 TrainTopology.BVDS4.udp droppedPkWrongPort:vector(count) ETV
attr interpolationmode none
attr recordingmode vector(count)
attr source packetDropReasonIsNoPortFound(packetDropped)
attr title "packets dropped (wrong port), count"
vector 149 TrainTopology.BVDS4.udp droppedPkBadChecksum:vector(count) ETV
attr interpolationmode none
attr recordingmode vector(count)
attr source packetDropReasonIsIncorrectlyReceived(packetDropped)
attr title "packets dropped (checksum error), count"
vector 150 TrainTopology.GVDS4.udp passedUpPk:vector(count) ETV
attr interpolationmode none
attr recordingmode vector(count)
attr source packetSentToUpper
attr title "packets passed up, count"
vector 151 TrainTopology.GVDS4.udp droppedPkWrongPort:vector(count) ETV
attr interpolationmode none
attr recordingmode vector(count)
attr source packetDropReasonIsNoPortFound(packetDropped)
attr title "packets dropped (wrong port), count"
vector 152 TrainTopology.GVDS4.udp droppedPkBadChecksum:vector(count) ETV
attr interpolationmode none
attr recordingmode vector(count)
attr source packetDropReasonIsIncorrectlyReceived(packetDropped)
attr title "packets dropped (checksum error), count"
vector 153 TrainTopology.IOM5_1.udp passedUpPk:vector(count) ETV
attr interpolationmode none
attr recordingmode vector(count)
attr source packetSentToUpper
attr title "packets passed up, count"
vector 154 TrainTopology.IOM5_1.udp droppedPkWrongPort:vector(count) ETV
attr interpolationmode none
attr recordingmode vector(count)
attr source packetDropReasonIsNoPortFound(packetDropped)
attr title "packets dropped (wrong port), count"
vector 155 TrainTopology.IOM5_1.udp droppedPkBadChecksum:vector(count) ETV
attr interpolationmode none
attr recordingmode vector(count)
attr source packetDropReasonIsIncorrectlyReceived(packetDropped)
attr title "packets dropped (checksum error), count"
vector 156 TrainTopology.BCU5.udp passedUpPk:vector(count) ETV
attr interpolationmode none
attr recordingmode vector(count)
attr source packetSentToUpper
attr title "packets passed up, count"
vector 157 TrainTopology.BCU5.udp droppedPkWrongPort:vector(count) ETV
attr interpolationmode none
attr recordingmode vector(count)
attr source packetDropReasonIsNoPortFound(packetDropped)
attr title "packets dropped (wrong port), count"
vector 158 TrainTopology.BCU5.udp droppedPkBadChecksum:vector(count) ETV
attr interpolationmode none
attr recordingmode vector(count)
attr source packetDropReasonIsIncorrectlyReceived(packetDropped)
attr title "packets dropped (checksum error), count"
vector 159 TrainTopology.HVAC5.udp passedUpPk:vector(count) ETV
attr interpolationmode none
attr recordingmode vector(count)
attr source packetSentToUpper
attr title "packets passed up, count"
vector 160 TrainTopology.HVAC5.udp droppedPkWrongPort:vector(count) ETV
attr interpolationmode none
attr recordingmode vector(count)
attr source packetDropReasonIsNoPortFound(packetDropped)
attr title "packets dropped (wrong port), count"
vector 161 TrainTopology.HVAC5.udp droppedPkBadChecksum:vector(count) ETV
attr interpolationmode none
attr recordingmode vector(count)
attr source packetDropReasonIsIncorrectlyReceived(packetDropped)
attr title "packets dropped (checksum error), count"
vector 162 TrainTopology.FAS5.udp passedUpPk:vector(count) ETV
attr interpolationmode none
attr recordingmode vector(count)
attr source packetSentToUpper
attr title "packets passed up, count"
vector 163 TrainTopology.FAS5.udp droppedPkWrongPort:vector(count) ETV
attr interpolationmode none
attr recordingmode vector(count)
attr source packetDropReasonIsNoPortFound(packetDropped)
attr title "packets dropped (wrong port), count"
vector 164 TrainTopology.FAS5.udp droppedPkBadChecksum:vector(count) ETV
attr interpolationmode none
attr recordingmode vector(count)
attr source packetDropReasonIsIncorrectlyReceived(packetDropped)
attr title "packets dropped (checksum error), count"
vector 165 TrainTopology.DCU5.udp passedUpPk:vector(count) ETV
attr interpolationmode none
attr recordingmode vector(count)
attr source packetSentToUpper
attr title "packets passed up, count"
vector 166 TrainTopology.DCU5.udp droppedPkWrongPort:vector(count) ETV
attr interpolationmode none
attr recordingmode vector(count)
attr source packetDropReasonIsNoPortFound(packetDropped)
attr title "packets dropped (wrong port), count"
vector 167 TrainTopology.DCU5.udp droppedPkBadChecksum:vector(count) ETV
attr interpolationmode none
attr recordingmode vector(count)
attr source packetDropReasonIsIncorrectlyReceived(packetDropped)
attr title "packets dropped (checksum error), count"
vector 168 TrainTopology.ATDS5.udp passedUpPk:vector(count) ETV
attr interpolationmode none
attr recordingmode vector(count)
attr source packetSentToUpper
attr title "packets passed up, count"
vector 169 TrainTopology.ATDS5.udp droppedPkWrongPort:vector(count) ETV
attr interpolationmode none
attr recordingmode vector(count)
attr source packetDropReasonIsNoPortFound(packetDropped)
attr title "packets dropped (wrong port), count"
vector 170 TrainTopology.ATDS5.udp droppedPkBadChecksum:vector(count) ETV
attr interpolationmode none
attr recordingmode vector(count)
attr source packetDropReasonIsIncorrectlyReceived(packetDropped)
attr title "packets dropped (checksum error), count"
vector 171 TrainTopology.TCU5.udp passedUpPk:vector(count) ETV
attr interpolationmode none
attr recordingmode vector(count)
attr source packetSentToUpper
attr title "packets passed up, count"
vector 172 TrainTopology.TCU5.udp droppedPkWrongPort:vector(count) ETV
attr interpolationmode none
attr recordingmode vector(count)
attr source packetDropReasonIsNoPortFound(packetDropped)
attr title "packets dropped (wrong port), count"
vector 173 TrainTopology.TCU5.udp droppedPkBadChecksum:vector(count) ETV
attr interpolationmode none
attr recordingmode vector(count)
attr source packetDropReasonIsIncorrectlyReceived(packetDropped)
attr title "packets dropped (checksum error), count"
vector 174 TrainTopology.IOM5_2.udp passedUpPk:vector(count) ETV
attr interpolationmode none
attr recordingmode vector(count)
attr source packetSentToUpper
attr title "packets passed up, count"
vector 175 TrainTopology.IOM5_2.udp droppedPkWrongPort:vector(count) ETV
attr interpolationmode none
attr recordingmode vector(count)
attr source packetDropReasonIsNoPortFound(packetDropped)
attr title "packets dropped (wrong port), count"
vector 176 TrainTopology.IOM5_2.udp droppedPkBadChecksum:vector(count) ETV
attr interpolationmode none
attr recordingmode vector(count)
attr source packetDropReasonIsIncorrectlyReceived(packetDropped)
attr title "packets dropped (checksum error), count"
vector 177 TrainTopology.BIDS5.udp passedUpPk:vector(count) ETV
attr interpolationmode none
attr recordingmode vector(count)
attr source packetSentToUpper
attr title "packets passed up, count"
vector 178 TrainTopology.BIDS5.udp droppedPkWrongPort:vector(count) ETV
attr interpolationmode none
attr recordingmode vector(count)
attr source packetDropReasonIsNoPortFound(packetDropped)
attr title "packets dropped (wrong port), count"
vector 179 TrainTopology.BIDS5.udp droppedPkBadChecksum:vector(count) ETV
attr interpolationmode none
attr recordingmode vector(count)
attr source packetDropReasonIsIncorrectlyReceived(packetDropped)
attr title "packets dropped (checksum error), count"
vector 180 TrainTopology.WNDS5.udp passedUpPk:vector(count) ETV
attr interpolationmode none
attr recordingmode vector(count)
attr source packetSentToUpper
attr title "packets passed up, count"
vector 181 TrainTopology.WNDS5.udp droppedPkWrongPort:vector(count) ETV
attr interpolationmode none
attr recordingmode vector(count)
attr source packetDropReasonIsNoPortFound(packetDropped)
attr title "packets dropped (wrong port), count"
vector 182 TrainTopology.WNDS5.udp droppedPkBadChecksum:vector(count) ETV
attr interpolationmode none
attr recordingmode vector(count)
attr source packetDropReasonIsIncorrectlyReceived(packetDropped)
attr title "packets dropped (checksum error), count"
vector 183 TrainTopology.BVDS5.udp passedUpPk:vector(count) ETV
attr interpolationmode none
attr recordingmode vector(count)
attr source packetSentToUpper
attr title "packets passed up, count"
vector 184 TrainTopology.BVDS5.udp droppedPkWrongPort:vector(count) ETV
attr interpolationmode none
attr recordingmode vector(count)
attr source packetDropReasonIsNoPortFound(packetDropped)
attr title "packets dropped (wrong port), count"
vector 185 TrainTopology.BVDS5.udp droppedPkBadChecksum:vector(count) ETV
attr interpolationmode none
attr recordingmode vector(count)
attr source packetDropReasonIsIncorrectlyReceived(packetDropped)
attr title "packets dropped (checksum error), count"
vector 186 TrainTopology.GVDS5.udp passedUpPk:vector(count) ETV
attr interpolationmode none
attr recordingmode vector(count)
attr source packetSentToUpper
attr title "packets passed up, count"
vector 187 TrainTopology.GVDS5.udp droppedPkWrongPort:vector(count) ETV
attr interpolationmode none
attr recordingmode vector(count)
attr source packetDropReasonIsNoPortFound(packetDropped)
attr title "packets dropped (wrong port), count"
vector 188 TrainTopology.GVDS5.udp droppedPkBadChecksum:vector(count) ETV
attr interpolationmode none
attr recordingmode vector(count)
attr source packetDropReasonIsIncorrectlyReceived(packetDropped)
attr title "packets dropped (checksum error), count"
vector 189 TrainTopology.IOM6_1.udp passedUpPk:vector(count) ETV
attr interpolationmode none
attr recordingmode vector(count)
attr source packetSentToUpper
attr title "packets passed up, count"
vector 190 TrainTopology.IOM6_1.udp droppedPkWrongPort:vector(count) ETV
attr interpolationmode none
attr recordingmode vector(count)
attr source packetDropReasonIsNoPortFound(packetDropped)
attr title "packets dropped (wrong port), count"
vector 191 TrainTopology.IOM6_1.udp droppedPkBadChecksum:vector(count) ETV
attr interpolationmode none
attr recordingmode vector(count)
attr source packetDropReasonIsIncorrectlyReceived(packetDropped)
attr title "packets dropped (checksum error), count"
vector 192 TrainTopology.BCU6.udp passedUpPk:vector(count) ETV
attr interpolationmode none
attr recordingmode vector(count)
attr source packetSentToUpper
attr title "packets passed up, count"
vector 193 TrainTopology.BCU6.udp droppedPkWrongPort:vector(count) ETV
attr interpolationmode none
attr recordingmode vector(count)
attr source packetDropReasonIsNoPortFound(packetDropped)
attr title "packets dropped (wrong port), count"
vector 194 TrainTopology.BCU6.udp droppedPkBadChecksum:vector(count) ETV
attr interpolationmode none
attr recordingmode vector(count)
attr source packetDropReasonIsIncorrectlyReceived(packetDropped)
attr title "packets dropped (checksum error), count"
vector 195 TrainTopology.HVAC6.udp passedUpPk:vector(count) ETV
attr interpolationmode none
attr recordingmode vector(count)
attr source packetSentToUpper
attr title "packets passed up, count"
vector 196 TrainTopology.HVAC6.udp droppedPkWrongPort:vector(count) ETV
attr interpolationmode none
attr recordingmode vector(count)
attr source packetDropReasonIsNoPortFound(packetDropped)
attr title "packets dropped (wrong port), count"
vector 197 TrainTopology.HVAC6.udp droppedPkBadChecksum:vector(count) ETV
attr interpolationmode none
attr recordingmode vector(count)
attr source packetDropReasonIsIncorrectlyReceived(packetDropped)
attr title "packets dropped (checksum error), count"
vector 198 TrainTopology.FAS6.udp passedUpPk:vector(count) ETV
attr interpolationmode none
attr recordingmode vector(count)
attr source packetSentToUpper
attr title "packets passed up, count"
vector 199 TrainTopology.FAS6.udp droppedPkWrongPort:vector(count) ETV
attr interpolationmode none
attr recordingmode vector(count)
attr source packetDropReasonIsNoPortFound(packetDropped)
attr title "packets dropped (wrong port), count"
vector 200 TrainTopology.FAS6.udp droppedPkBadChecksum:vector(count) ETV
attr interpolationmode none
attr recordingmode vector(count)
attr source packetDropReasonIsIncorrectlyReceived(packetDropped)
attr title "packets dropped (checksum error), count"
vector 201 TrainTopology.DCU6.udp passedUpPk:vector(count) ETV
attr interpolationmode none
attr recordingmode vector(count)
attr source packetSentToUpper
attr title "packets passed up, count"
vector 202 TrainTopology.DCU6.udp droppedPkWrongPort:vector(count) ETV
attr interpolationmode none
attr recordingmode vector(count)
attr source packetDropReasonIsNoPortFound(packetDropped)
attr title "packets dropped (wrong port), count"
vector 203 TrainTopology.DCU6.udp droppedPkBadChecksum:vector(count) ETV
attr interpolationmode none
attr recordingmode vector(count)
attr source packetDropReasonIsIncorrectlyReceived(packetDropped)
attr title "packets dropped (checksum error), count"
vector 204 TrainTopology.ATDS6.udp passedUpPk:vector(count) ETV
attr interpolationmode none
attr recordingmode vector(count)
attr source packetSentToUpper
attr title "packets passed up, count"
vector 205 TrainTopology.ATDS6.udp droppedPkWrongPort:vector(count) ETV
attr interpolationmode none
attr recordingmode vector(count)
attr source packetDropReasonIsNoPortFound(packetDropped)
attr title "packets dropped (wrong port), count"
vector 206 TrainTopology.ATDS6.udp droppedPkBadChecksum:vector(count) ETV
attr interpolationmode none
attr recordingmode vector(count)
attr source packetDropReasonIsIncorrectlyReceived(packetDropped)
attr title "packets dropped (checksum error), count"
vector 207 TrainTopology.IOM6_2.udp passedUpPk:vector(count) ETV
attr interpolationmode none
attr recordingmode vector(count)
attr source packetSentToUpper
attr title "packets passed up, count"
vector 208 TrainTopology.IOM6_2.udp droppedPkWrongPort:vector(count) ETV
attr interpolationmode none
attr recordingmode vector(count)
attr source packetDropReasonIsNoPortFound(packetDropped)
attr title "packets dropped (wrong port), count"
vector 209 TrainTopology.IOM6_2.udp droppedPkBadChecksum:vector(count) ETV
attr interpolationmode none
attr recordingmode vector(count)
attr source packetDropReasonIsIncorrectlyReceived(packetDropped)
attr title "packets dropped (checksum error), count"
vector 210 TrainTopology.BIDS6.udp passedUpPk:vector(count) ETV
attr interpolationmode none
attr recordingmode vector(count)
attr source packetSentToUpper
attr title "packets passed up, count"
vector 211 TrainTopology.BIDS6.udp droppedPkWrongPort:vector(count) ETV
attr interpolationmode none
attr recordingmode vector(count)
attr source packetDropReasonIsNoPortFound(packetDropped)
attr title "packets dropped (wrong port), count"
vector 212 TrainTopology.BIDS6.udp droppedPkBadChecksum:vector(count) ETV
attr interpolationmode none
attr recordingmode vector(count)
attr source packetDropReasonIsIncorrectlyReceived(packetDropped)
attr title "packets dropped (checksum error), count"
vector 213 TrainTopology.WNDS6.udp passedUpPk:vector(count) ETV
attr interpolationmode none
attr recordingmode vector(count)
attr source packetSentToUpper
attr title "packets passed up, count"
vector 214 TrainTopology.WNDS6.udp droppedPkWrongPort:vector(count) ETV
attr interpolationmode none
attr recordingmode vector(count)
attr source packetDropReasonIsNoPortFound(packetDropped)
attr title "packets dropped (wrong port), count"
vector 215 TrainTopology.WNDS6.udp droppedPkBadChecksum:vector(count) ETV
attr interpolationmode none
attr recordingmode vector(count)
attr source packetDropReasonIsIncorrectlyReceived(packetDropped)
attr title "packets dropped (checksum error), count"
vector 216 TrainTopology.BVDS6.udp passedUpPk:vector(count) ETV
attr interpolationmode none
attr recordingmode vector(count)
attr source packetSentToUpper
attr title "packets passed up, count"
vector 217 TrainTopology.BVDS6.udp droppedPkWrongPort:vector(count) ETV
attr interpolationmode none
attr recordingmode vector(count)
attr source packetDropReasonIsNoPortFound(packetDropped)
attr title "packets dropped (wrong port), count"
vector 218 TrainTopology.BVDS6.udp droppedPkBadChecksum:vector(count) ETV
attr interpolationmode none
attr recordingmode vector(count)
attr source packetDropReasonIsIncorrectlyReceived(packetDropped)
attr title "packets dropped (checksum error), count"
vector 219 TrainTopology.IOM7_1.udp passedUpPk:vector(count) ETV
attr interpolationmode none
attr recordingmode vector(count)
attr source packetSentToUpper
attr title "packets passed up, count"
vector 220 TrainTopology.IOM7_1.udp droppedPkWrongPort:vector(count) ETV
attr interpolationmode none
attr recordingmode vector(count)
attr source packetDropReasonIsNoPortFound(packetDropped)
attr title "packets dropped (wrong port), count"
vector 221 TrainTopology.IOM7_1.udp droppedPkBadChecksum:vector(count) ETV
attr interpolationmode none
attr recordingmode vector(count)
attr source packetDropReasonIsIncorrectlyReceived(packetDropped)
attr title "packets dropped (checksum error), count"
vector 222 TrainTopology.BCU7.udp passedUpPk:vector(count) ETV
attr interpolationmode none
attr recordingmode vector(count)
attr source packetSentToUpper
attr title "packets passed up, count"
vector 223 TrainTopology.BCU7.udp droppedPkWrongPort:vector(count) ETV
attr interpolationmode none
attr recordingmode vector(count)
attr source packetDropReasonIsNoPortFound(packetDropped)
attr title "packets dropped (wrong port), count"
vector 224 TrainTopology.BCU7.udp droppedPkBadChecksum:vector(count) ETV
attr interpolationmode none
attr recordingmode vector(count)
attr source packetDropReasonIsIncorrectlyReceived(packetDropped)
attr title "packets dropped (checksum error), count"
vector 225 TrainTopology.HVAC7.udp passedUpPk:vector(count) ETV
attr interpolationmode none
attr recordingmode vector(count)
attr source packetSentToUpper
attr title "packets passed up, count"
vector 226 TrainTopology.HVAC7.udp droppedPkWrongPort:vector(count) ETV
attr interpolationmode none
attr recordingmode vector(count)
attr source packetDropReasonIsNoPortFound(packetDropped)
attr title "packets dropped (wrong port), count"
vector 227 TrainTopology.HVAC7.udp droppedPkBadChecksum:vector(count) ETV
attr interpolationmode none
attr recordingmode vector(count)
attr source packetDropReasonIsIncorrectlyReceived(packetDropped)
attr title "packets dropped (checksum error), count"
vector 228 TrainTopology.FAS7.udp passedUpPk:vector(count) ETV
attr interpolationmode none
attr recordingmode vector(count)
attr source packetSentToUpper
attr title "packets passed up, count"
vector 229 TrainTopology.FAS7.udp droppedPkWrongPort:vector(count) ETV
attr interpolationmode none
attr recordingmode vector(count)
attr source packetDropReasonIsNoPortFound(packetDropped)
attr title "packets dropped (wrong port), count"
vector 230 TrainTopology.FAS7.udp droppedPkBadChecksum:vector(count) ETV
attr interpolationmode none
attr recordingmode vector(count)
attr source packetDropReasonIsIncorrectlyReceived(packetDropped)
attr title "packets dropped (checksum error), count"
vector 231 TrainTopology.DCU7.udp passedUpPk:vector(count) ETV
attr interpolationmode none
attr recordingmode vector(count)
attr source packetSentToUpper
attr title "packets passed up, count"
vector 232 TrainTopology.DCU7.udp droppedPkWrongPort:vector(count) ETV
attr interpolationmode none
attr recordingmode vector(count)
attr source packetDropReasonIsNoPortFound(packetDropped)
attr title "packets dropped (wrong port), count"
vector 233 TrainTopology.DCU7.udp droppedPkBadChecksum:vector(count) ETV
attr interpolationmode none
attr recordingmode vector(count)
attr source packetDropReasonIsIncorrectlyReceived(packetDropped)
attr title "packets dropped (checksum error), count"
vector 234 TrainTopology.ATDS7.udp passedUpPk:vector(count) ETV
attr interpolationmode none
attr recordingmode vector(count)
attr source packetSentToUpper
attr title "packets passed up, count"
vector 235 TrainTopology.ATDS7.udp droppedPkWrongPort:vector(count) ETV
attr interpolationmode none
attr recordingmode vector(count)
attr source packetDropReasonIsNoPortFound(packetDropped)
attr title "packets dropped (wrong port), count"
vector 236 TrainTopology.ATDS7.udp droppedPkBadChecksum:vector(count) ETV
attr interpolationmode none
attr recordingmode vector(count)
attr source packetDropReasonIsIncorrectlyReceived(packetDropped)
attr title "packets dropped (checksum error), count"
vector 237 TrainTopology.TCU7.udp passedUpPk:vector(count) ETV
attr interpolationmode none
attr recordingmode vector(count)
attr source packetSentToUpper
attr title "packets passed up, count"
vector 238 TrainTopology.TCU7.udp droppedPkWrongPort:vector(count) ETV
attr interpolationmode none
attr recordingmode vector(count)
attr source packetDropReasonIsNoPortFound(packetDropped)
attr title "packets dropped (wrong port), count"
vector 239 TrainTopology.TCU7.udp droppedPkBadChecksum:vector(count) ETV
attr interpolationmode none
attr recordingmode vector(count)
attr source packetDropReasonIsIncorrectlyReceived(packetDropped)
attr title "packets dropped (checksum error), count"
vector 240 TrainTopology.IOM7_2.udp passedUpPk:vector(count) ETV
attr interpolationmode none
attr recordingmode vector(count)
attr source packetSentToUpper
attr title "packets passed up, count"
vector 241 TrainTopology.IOM7_2.udp droppedPkWrongPort:vector(count) ETV
attr interpolationmode none
attr recordingmode vector(count)
attr source packetDropReasonIsNoPortFound(packetDropped)
attr title "packets dropped (wrong port), count"
vector 242 TrainTopology.IOM7_2.udp droppedPkBadChecksum:vector(count) ETV
attr interpolationmode none
attr recordingmode vector(count)
attr source packetDropReasonIsIncorrectlyReceived(packetDropped)
attr title "packets dropped (checksum error), count"
vector 243 TrainTopology.BIDS7.udp passedUpPk:vector(count) ETV
attr interpolationmode none
attr recordingmode vector(count)
attr source packetSentToUpper
attr title "packets passed up, count"
vector 244 TrainTopology.BIDS7.udp droppedPkWrongPort:vector(count) ETV
attr interpolationmode none
attr recordingmode vector(count)
attr source packetDropReasonIsNoPortFound(packetDropped)
attr title "packets dropped (wrong port), count"
vector 245 TrainTopology.BIDS7.udp droppedPkBadChecksum:vector(count) ETV
attr interpolationmode none
attr recordingmode vector(count)
attr source packetDropReasonIsIncorrectlyReceived(packetDropped)
attr title "packets dropped (checksum error), count"
vector 246 TrainTopology.WNDS7.udp passedUpPk:vector(count) ETV
attr interpolationmode none
attr recordingmode vector(count)
attr source packetSentToUpper
attr title "packets passed up, count"
vector 247 TrainTopology.WNDS7.udp droppedPkWrongPort:vector(count) ETV
attr interpolationmode none
attr recordingmode vector(count)
attr source packetDropReasonIsNoPortFound(packetDropped)
attr title "packets dropped (wrong port), count"
vector 248 TrainTopology.WNDS7.udp droppedPkBadChecksum:vector(count) ETV
attr interpolationmode none
attr recordingmode vector(count)
attr source packetDropReasonIsIncorrectlyReceived(packetDropped)
attr title "packets dropped (checksum error), count"
vector 249 TrainTopology.BVDS7.udp passedUpPk:vector(count) ETV
attr interpolationmode none
attr recordingmode vector(count)
attr source packetSentToUpper
attr title "packets passed up, count"
vector 250 TrainTopology.BVDS7.udp droppedPkWrongPort:vector(count) ETV
attr interpolationmode none
attr recordingmode vector(count)
attr source packetDropReasonIsNoPortFound(packetDropped)
attr title "packets dropped (wrong port), count"
vector 251 TrainTopology.BVDS7.udp droppedPkBadChecksum:vector(count) ETV
attr interpolationmode none
attr recordingmode vector(count)
attr source packetDropReasonIsIncorrectlyReceived(packetDropped)
attr title "packets dropped (checksum error), count"
vector 252 TrainTopology.GVDS7.udp passedUpPk:vector(count) ETV
attr interpolationmode none
attr recordingmode vector(count)
attr source packetSentToUpper
attr title "packets passed up, count"
vector 253 TrainTopology.GVDS7.udp droppedPkWrongPort:vector(count) ETV
attr interpolationmode none
attr recordingmode vector(count)
attr source packetDropReasonIsNoPortFound(packetDropped)
attr title "packets dropped (wrong port), count"
vector 254 TrainTopology.GVDS7.udp droppedPkBadChecksum:vector(count) ETV
attr interpolationmode none
attr recordingmode vector(count)
attr source packetDropReasonIsIncorrectlyReceived(packetDropped)
attr title "packets dropped (checksum error), count"
vector 255 TrainTopology.CCU8_1.udp passedUpPk:vector(count) ETV
attr interpolationmode none
attr recordingmode vector(count)
attr source packetSentToUpper
attr title "packets passed up, count"
vector 256 TrainTopology.CCU8_1.udp droppedPkWrongPort:vector(count) ETV
attr interpolationmode none
attr recordingmode vector(count)
attr source packetDropReasonIsNoPortFound(packetDropped)
attr title "packets dropped (wrong port), count"
vector 257 TrainTopology.CCU8_1.udp droppedPkBadChecksum:vector(count) ETV
attr interpolationmode none
attr recordingmode vector(count)
attr source packetDropReasonIsIncorrectlyReceived(packetDropped)
attr title "packets dropped (checksum error), count"
vector 258 TrainTopology.HMI8_1.udp passedUpPk:vector(count) ETV
attr interpolationmode none
attr recordingmode vector(count)
attr source packetSentToUpper
attr title "packets passed up, count"
vector 259 TrainTopology.HMI8_1.udp droppedPkWrongPort:vector(count) ETV
attr interpolationmode none
attr recordingmode vector(count)
attr source packetDropReasonIsNoPortFound(packetDropped)
attr title "packets dropped (wrong port), count"
vector 260 TrainTopology.HMI8_1.udp droppedPkBadChecksum:vector(count) ETV
attr interpolationmode none
attr recordingmode vector(count)
attr source packetDropReasonIsIncorrectlyReceived(packetDropped)
attr title "packets dropped (checksum error), count"
vector 261 TrainTopology.WTD8.udp passedUpPk:vector(count) ETV
attr interpolationmode none
attr recordingmode vector(count)
attr source packetSentToUpper
attr title "packets passed up, count"
vector 262 TrainTopology.WTD8.udp droppedPkWrongPort:vector(count) ETV
attr interpolationmode none
attr recordingmode vector(count)
attr source packetDropReasonIsNoPortFound(packetDropped)
attr title "packets dropped (wrong port), count"
vector 263 TrainTopology.WTD8.udp droppedPkBadChecksum:vector(count) ETV
attr interpolationmode none
attr recordingmode vector(count)
attr source packetDropReasonIsIncorrectlyReceived(packetDropped)
attr title "packets dropped (checksum error), count"
vector 264 TrainTopology.IOM8_1.udp passedUpPk:vector(count) ETV
attr interpolationmode none
attr recordingmode vector(count)
attr source packetSentToUpper
attr title "packets passed up, count"
vector 265 TrainTopology.IOM8_1.udp droppedPkWrongPort:vector(count) ETV
attr interpolationmode none
attr recordingmode vector(count)
attr source packetDropReasonIsNoPortFound(packetDropped)
attr title "packets dropped (wrong port), count"
vector 266 TrainTopology.IOM8_1.udp droppedPkBadChecksum:vector(count) ETV
attr interpolationmode none
attr recordingmode vector(count)
attr source packetDropReasonIsIncorrectlyReceived(packetDropped)
attr title "packets dropped (checksum error), count"
vector 267 TrainTopology.ATDS8.udp passedUpPk:vector(count) ETV
attr interpolationmode none
attr recordingmode vector(count)
attr source packetSentToUpper
attr title "packets passed up, count"
vector 268 TrainTopology.ATDS8.udp droppedPkWrongPort:vector(count) ETV
attr interpolationmode none
attr recordingmode vector(count)
attr source packetDropReasonIsNoPortFound(packetDropped)
attr title "packets dropped (wrong port), count"
vector 269 TrainTopology.ATDS8.udp droppedPkBadChecksum:vector(count) ETV
attr interpolationmode none
attr recordingmode vector(count)
attr source packetDropReasonIsIncorrectlyReceived(packetDropped)
attr title "packets dropped (checksum error), count"
vector 270 TrainTopology.BC8_1.udp passedUpPk:vector(count) ETV
attr interpolationmode none
attr recordingmode vector(count)
attr source packetSentToUpper
attr title "packets passed up, count"
vector 271 TrainTopology.BC8_1.udp droppedPkWrongPort:vector(count) ETV
attr interpolationmode none
attr recordingmode vector(count)
attr source packetDropReasonIsNoPortFound(packetDropped)
attr title "packets dropped (wrong port), count"
vector 272 TrainTopology.BC8_1.udp droppedPkBadChecksum:vector(count) ETV
attr interpolationmode none
attr recordingmode vector(count)
attr source packetDropReasonIsIncorrectlyReceived(packetDropped)
attr title "packets dropped (checksum error), count"
vector 273 TrainTopology.BIDS8.udp passedUpPk:vector(count) ETV
attr interpolationmode none
attr recordingmode vector(count)
attr source packetSentToUpper
attr title "packets passed up, count"
vector 274 TrainTopology.BIDS8.udp droppedPkWrongPort:vector(count) ETV
attr interpolationmode none
attr recordingmode vector(count)
attr source packetDropReasonIsNoPortFound(packetDropped)
attr title "packets dropped (wrong port), count"
vector 275 TrainTopology.BIDS8.udp droppedPkBadChecksum:vector(count) ETV
attr interpolationmode none
attr recordingmode vector(count)
attr source packetDropReasonIsIncorrectlyReceived(packetDropped)
attr title "packets dropped (checksum error), count"
vector 276 TrainTopology.WNDS8.udp passedUpPk:vector(count) ETV
attr interpolationmode none
attr recordingmode vector(count)
attr source packetSentToUpper
attr title "packets passed up, count"
vector 277 TrainTopology.WNDS8.udp droppedPkWrongPort:vector(count) ETV
attr interpolationmode none
attr recordingmode vector(count)
attr source packetDropReasonIsNoPortFound(packetDropped)
attr title "packets dropped (wrong port), count"
vector 278 TrainTopology.WNDS8.udp droppedPkBadChecksum:vector(count) ETV
attr interpolationmode none
attr recordingmode vector(count)
attr source packetDropReasonIsIncorrectlyReceived(packetDropped)
attr title "packets dropped (checksum error), count"
vector 279 TrainTopology.BVDS8.udp passedUpPk:vector(count) ETV
attr interpolationmode none
attr recordingmode vector(count)
attr source packetSentToUpper
attr title "packets passed up, count"
vector 280 TrainTopology.BVDS8.udp droppedPkWrongPort:vector(count) ETV
attr interpolationmode none
attr recordingmode vector(count)
attr source packetDropReasonIsNoPortFound(packetDropped)
attr title "packets dropped (wrong port), count"
vector 281 TrainTopology.BVDS8.udp droppedPkBadChecksum:vector(count) ETV
attr interpolationmode none
attr recordingmode vector(count)
attr source packetDropReasonIsIncorrectlyReceived(packetDropped)
attr title "packets dropped (checksum error), count"
vector 282 TrainTopology.CCU8_2.udp passedUpPk:vector(count) ETV
attr interpolationmode none
attr recordingmode vector(count)
attr source packetSentToUpper
attr title "packets passed up, count"
vector 283 TrainTopology.CCU8_2.udp droppedPkWrongPort:vector(count) ETV
attr interpolationmode none
attr recordingmode vector(count)
attr source packetDropReasonIsNoPortFound(packetDropped)
attr title "packets dropped (wrong port), count"
vector 284 TrainTopology.CCU8_2.udp droppedPkBadChecksum:vector(count) ETV
attr interpolationmode none
attr recordingmode vector(count)
attr source packetDropReasonIsIncorrectlyReceived(packetDropped)
attr title "packets dropped (checksum error), count"
vector 285 TrainTopology.HMI8_2.udp passedUpPk:vector(count) ETV
attr interpolationmode none
attr recordingmode vector(count)
attr source packetSentToUpper
attr title "packets passed up, count"
vector 286 TrainTopology.HMI8_2.udp droppedPkWrongPort:vector(count) ETV
attr interpolationmode none
attr recordingmode vector(count)
attr source packetDropReasonIsNoPortFound(packetDropped)
attr title "packets dropped (wrong port), count"
vector 287 TrainTopology.HMI8_2.udp droppedPkBadChecksum:vector(count) ETV
attr interpolationmode none
attr recordingmode vector(count)
attr source packetDropReasonIsIncorrectlyReceived(packetDropped)
attr title "packets dropped (checksum error), count"
vector 288 TrainTopology.IOM8_2.udp passedUpPk:vector(count) ETV
attr interpolationmode none
attr recordingmode vector(count)
attr source packetSentToUpper
attr title "packets passed up, count"
vector 289 TrainTopology.IOM8_2.udp droppedPkWrongPort:vector(count) ETV
attr interpolationmode none
attr recordingmode vector(count)
attr source packetDropReasonIsNoPortFound(packetDropped)
attr title "packets dropped (wrong port), count"
vector 290 TrainTopology.IOM8_2.udp droppedPkBadChecksum:vector(count) ETV
attr interpolationmode none
attr recordingmode vector(count)
attr source packetDropReasonIsIncorrectlyReceived(packetDropped)
attr title "packets dropped (checksum error), count"
vector 291 TrainTopology.BCU8.udp passedUpPk:vector(count) ETV
attr interpolationmode none
attr recordingmode vector(count)
attr source packetSentToUpper
attr title "packets passed up, count"
vector 292 TrainTopology.BCU8.udp droppedPkWrongPort:vector(count) ETV
attr interpolationmode none
attr recordingmode vector(count)
attr source packetDropReasonIsNoPortFound(packetDropped)
attr title "packets dropped (wrong port), count"
vector 293 TrainTopology.BCU8.udp droppedPkBadChecksum:vector(count) ETV
attr interpolationmode none
attr recordingmode vector(count)
attr source packetDropReasonIsIncorrectlyReceived(packetDropped)
attr title "packets dropped (checksum error), count"
vector 294 TrainTopology.HVAC8.udp passedUpPk:vector(count) ETV
attr interpolationmode none
attr recordingmode vector(count)
attr source packetSentToUpper
attr title "packets passed up, count"
vector 295 TrainTopology.HVAC8.udp droppedPkWrongPort:vector(count) ETV
attr interpolationmode none
attr recordingmode vector(count)
attr source packetDropReasonIsNoPortFound(packetDropped)
attr title "packets dropped (wrong port), count"
vector 296 TrainTopology.HVAC8.udp droppedPkBadChecksum:vector(count) ETV
attr interpolationmode none
attr recordingmode vector(count)
attr source packetDropReasonIsIncorrectlyReceived(packetDropped)
attr title "packets dropped (checksum error), count"
vector 297 TrainTopology.FAS8.udp passedUpPk:vector(count) ETV
attr interpolationmode none
attr recordingmode vector(count)
attr source packetSentToUpper
attr title "packets passed up, count"
vector 298 TrainTopology.FAS8.udp droppedPkWrongPort:vector(count) ETV
attr interpolationmode none
attr recordingmode vector(count)
attr source packetDropReasonIsNoPortFound(packetDropped)
attr title "packets dropped (wrong port), count"
vector 299 TrainTopology.FAS8.udp droppedPkBadChecksum:vector(count) ETV
attr interpolationmode none
attr recordingmode vector(count)
attr source packetDropReasonIsIncorrectlyReceived(packetDropped)
attr title "packets dropped (checksum error), count"
vector 300 TrainTopology.DCU8.udp passedUpPk:vector(count) ETV
attr interpolationmode none
attr recordingmode vector(count)
attr source packetSentToUpper
attr title "packets passed up, count"
vector 301 TrainTopology.DCU8.udp droppedPkWrongPort:vector(count) ETV
attr interpolationmode none
attr recordingmode vector(count)
attr source packetDropReasonIsNoPortFound(packetDropped)
attr title "packets dropped (wrong port), count"
vector 302 TrainTopology.DCU8.udp droppedPkBadChecksum:vector(count) ETV
attr interpolationmode none
attr recordingmode vector(count)
attr source packetDropReasonIsIncorrectlyReceived(packetDropped)
attr title "packets dropped (checksum error), count"
vector 303 TrainTopology.BC8_2.udp passedUpPk:vector(count) ETV
attr interpolationmode none
attr recordingmode vector(count)
attr source packetSentToUpper
attr title "packets passed up, count"
vector 304 TrainTopology.BC8_2.udp droppedPkWrongPort:vector(count) ETV
attr interpolationmode none
attr recordingmode vector(count)
attr source packetDropReasonIsNoPortFound(packetDropped)
attr title "packets dropped (wrong port), count"
vector 305 TrainTopology.BC8_2.udp droppedPkBadChecksum:vector(count) ETV
attr interpolationmode none
attr recordingmode vector(count)
attr source packetDropReasonIsIncorrectlyReceived(packetDropped)
attr title "packets dropped (checksum error), count"
vector 306 TrainTopology.TCU2.app[0] packetSent:vector(packetBytes) ETV
attr interpolationmode none
attr recordingmode vector(packetBytes)
attr source packetSent
attr title "packets sent, packetBytes"
vector 307 TrainTopology.TCU4.app[0] packetSent:vector(packetBytes) ETV
attr interpolationmode none
attr recordingmode vector(packetBytes)
attr source packetSent
attr title "packets sent, packetBytes"
vector 308 TrainTopology.TCU5.app[0] packetSent:vector(packetBytes) ETV
attr interpolationmode none
attr recordingmode vector(packetBytes)
attr source packetSent
attr title "packets sent, packetBytes"
vector 309 TrainTopology.TCU7.app[0] packetSent:vector(packetBytes) ETV
attr interpolationmode none
attr recordingmode vector(packetBytes)
attr source packetSent
attr title "packets sent, packetBytes"
vector 310 TrainTopology.TCU2.udp packetSent:vector(packetBytes) ETV
attr interpolationmode none
attr recordingmode vector(packetBytes)
attr source packetSent
attr title "packets sent, packetBytes"
vector 311 TrainTopology.TCU4.udp packetSent:vector(packetBytes) ETV
attr interpolationmode none
attr recordingmode vector(packetBytes)
attr source packetSent
attr title "packets sent, packetBytes"
vector 312 TrainTopology.TCU5.udp packetSent:vector(packetBytes) ETV
attr interpolationmode none
attr recordingmode vector(packetBytes)
attr source packetSent
attr title "packets sent, packetBytes"
vector 313 TrainTopology.TCU7.udp packetSent:vector(packetBytes) ETV
attr interpolationmode none
attr recordingmode vector(packetBytes)
attr source packetSent
attr title "packets sent, packetBytes"
vector 314 TrainTopology.TCU2.ethernet encapPk:vector(packetBytes) ETV
attr interpolationmode none
attr recordingmode vector(packetBytes)
attr source encapPk
attr title "packets encapsulated, packetBytes"
vector 315 TrainTopology.TCU4.ethernet encapPk:vector(packetBytes) ETV
attr interpolationmode none
attr recordingmode vector(packetBytes)
attr source encapPk
attr title "packets encapsulated, packetBytes"
vector 316 TrainTopology.TCU5.ethernet encapPk:vector(packetBytes) ETV
attr interpolationmode none
attr recordingmode vector(packetBytes)
attr source encapPk
attr title "packets encapsulated, packetBytes"
vector 317 TrainTopology.TCU7.ethernet encapPk:vector(packetBytes) ETV
attr interpolationmode none
attr recordingmode vector(packetBytes)
attr source encapPk
attr title "packets encapsulated, packetBytes"
vector 318 TrainTopology.TCU2.eth[0].queue incomingPacketLengths:vector ETV
attr interpolationmode none
attr recordingmode vector
attr source packetLength(packetPushStarted)
attr title "incoming packet lengths"
attr unit b
vector 319 TrainTopology.TCU2.eth[0].queue queueingTime:vector ETV
attr interpolationmode none
attr recordingmode vector
attr source queueingTime(packetPulled)
attr title "queueing times"
attr unit s
vector 320 TrainTopology.TCU2.eth[0].queue outgoingPacketLengths:vector ETV
attr interpolationmode none
attr recordingmode vector
attr source packetLength(packetPulled)
attr title "outgoing packet lengths"
attr unit b
vector 321 TrainTopology.TCU2.eth[0].mac packetReceivedFromUpper:vector(packetBytes) ETV
attr interpolationmode none
attr recordingmode vector(packetBytes)
attr source packetReceivedFromUpper
attr title "packet bytes from higher layer, packetBytes"
vector 322 TrainTopology.TCU2.eth[0].queue queueLength:vector ETV
attr autoWarmupFilter false
attr interpolationmode sample-hold
attr recordingmode vector
attr source "warmup(atomic(constant0(packetPushEnded) + count(packetPushStarted) - count(packetPulled) - count(packetRemoved) - count(packetDropped)))"
attr title "queue length"
attr unit pk
vector 323 TrainTopology.TCU2.eth[0].queue queueBitLength:vector ETV
attr autoWarmupFilter false
attr interpolationmode sample-hold
attr recordingmode vector
attr source "warmup(atomic(constant0(packetPushEnded) + sum(packetLength(packetPushStarted)) - sum(packetLength(packetPulled)) - sum(packetLength(packetRemoved)) - sum(packetLength(packetDropped))))"
attr title "queue bit length"
attr unit b
vector 324 TrainTopology.TCU4.eth[0].queue incomingPacketLengths:vector ETV
attr interpolationmode none
attr recordingmode vector
attr source packetLength(packetPushStarted)
attr title "incoming packet lengths"
attr unit b
vector 325 TrainTopology.TCU4.eth[0].queue queueingTime:vector ETV
attr interpolationmode none
attr recordingmode vector
attr source queueingTime(packetPulled)
attr title "queueing times"
attr unit s
vector 326 TrainTopology.TCU4.eth[0].queue outgoingPacketLengths:vector ETV
attr interpolationmode none
attr recordingmode vector
attr source packetLength(packetPulled)
attr title "outgoing packet lengths"
attr unit b
vector 327 TrainTopology.TCU4.eth[0].mac packetReceivedFromUpper:vector(packetBytes) ETV
attr interpolationmode none
attr recordingmode vector(packetBytes)
attr source packetReceivedFromUpper
attr title "packet bytes from higher layer, packetBytes"
vector 328 TrainTopology.TCU4.eth[0].queue queueLength:vector ETV
attr autoWarmupFilter false
attr interpolationmode sample-hold
attr recordingmode vector
attr source "warmup(atomic(constant0(packetPushEnded) + count(packetPushStarted) - count(packetPulled) - count(packetRemoved) - count(packetDropped)))"
attr title "queue length"
attr unit pk
vector 329 TrainTopology.TCU4.eth[0].queue queueBitLength:vector ETV
attr autoWarmupFilter false
attr interpolationmode sample-hold
attr recordingmode vector
attr source "warmup(atomic(constant0(packetPushEnded) + sum(packetLength(packetPushStarted)) - sum(packetLength(packetPulled)) - sum(packetLength(packetRemoved)) - sum(packetLength(packetDropped))))"
attr title "queue bit length"
attr unit b
vector 330 TrainTopology.TCU5.eth[0].queue incomingPacketLengths:vector ETV
attr interpolationmode none
attr recordingmode vector
attr source packetLength(packetPushStarted)
attr title "incoming packet lengths"
attr unit b
vector 331 TrainTopology.TCU5.eth[0].queue queueingTime:vector ETV
attr interpolationmode none
attr recordingmode vector
attr source queueingTime(packetPulled)
attr title "queueing times"
attr unit s
vector 332 TrainTopology.TCU5.eth[0].queue outgoingPacketLengths:vector ETV
attr interpolationmode none
attr recordingmode vector
attr source packetLength(packetPulled)
attr title "outgoing packet lengths"
attr unit b
vector 333 TrainTopology.TCU5.eth[0].mac packetReceivedFromUpper:vector(packetBytes) ETV
attr interpolationmode none
attr recordingmode vector(packetBytes)
attr source packetReceivedFromUpper
attr title "packet bytes from higher layer, packetBytes"
vector 334 TrainTopology.TCU5.eth[0].queue queueLength:vector ETV
attr autoWarmupFilter false
attr interpolationmode sample-hold
attr recordingmode vector
attr source "warmup(atomic(constant0(packetPushEnded) + count(packetPushStarted) - count(packetPulled) - count(packetRemoved) - count(packetDropped)))"
attr title "queue length"
attr unit pk
vector 335 TrainTopology.TCU5.eth[0].queue queueBitLength:vector ETV
attr autoWarmupFilter false
attr interpolationmode sample-hold
attr recordingmode vector
attr source "warmup(atomic(constant0(packetPushEnded) + sum(packetLength(packetPushStarted)) - sum(packetLength(packetPulled)) - sum(packetLength(packetRemoved)) - sum(packetLength(packetDropped))))"
attr title "queue bit length"
attr unit b
[...]
798	264846 25 159 159 0.000051121822 0.000051121822 1 0 0 0 0
799	264871 25 159 159 0.000051121822 0.000051121822 1 0 0 0 0
800	264896 25 159 159 0.000051121822 0.000051121822 1 0 0 0 0
801	264921 25 159 159 0.000051121822 0.000051121822 1 0 0 0 0
802	264946 25 159 159 0.000051121822 0.000051121822 1 0 0 0 0
803	264971 25 159 159 0.000051121822 0.000051121822 1 0 0 0 0
804	264996 25 159 159 0.000051121822 0.000051121822 1 0 0 0 0
805	265021 25 159 159 0.000051121822 0.000051121822 1 0 0 0 0
806	265046 25 159 159 0.000051121822 0.000051121822 1 0 0 0 0
807	265071 25 159 159 0.000051121822 0.000051121822 1 0 0 0 0
808	265096 25 159 159 0.000051121822 0.000051121822 1 0 0 0 0
809	265121 25 159 159 0.000051121822 0.000051121822 1 0 0 0 0
810	265146 25 159 159 0.000051121822 0.000051121822 1 0 0 0 0
811	265171 39 159 159 0.000051121822 0.000051121822 1 15022938.736417 15022938.736417 15022938.736417 2.2568868827813e+14
812	265210 39 159 159 0.000051121822 0.000051121822 1 15022938.736417 15022938.736417 15022938.736417 2.2568868827813e+14
813	265249 25 159 159 0.000051121822 0.000051121822 1 0 0 0 0
814	265274 25 159 159 0.000051121822 0.000051121822 1 0 0 0 0
815	265299 25 159 159 0.000051121822 0.000051121822 1 0 0 0 0
816	265324 25 159 159 0.000051121822 0.000051121822 1 0 0 0 0
817	265349 25 159 159 0.000051121822 0.000051121822 1 0 0 0 0
818	265374 25 159 159 0.000051121822 0.000051121822 1 0 0 0 0
819	265399 25 159 159 0.000051121822 0.000051121822 1 0 0 0 0
820	265424 25 159 159 0.000051121822 0.000051121822 1 0 0 0 0
821	265449 25 159 159 0.000051121822 0.000051121822 1 0 0 0 0
822	265474 25 159 159 0.000051121822 0.000051121822 1 0 0 0 0
823	265499 25 159 159 0.000051121822 0.000051121822 1 0 0 0 0
824	265524 25 159 159 0.000051121822 0.000051121822 1 0 0 0 0
825	265549 25 159 159 0.000051121822 0.000051121822 1 0 0 0 0
826	265574 25 159 159 0.000051121822 0.000051121822 1 0 0 0 0
827	265599 25 159 159 0.000051121822 0.000051121822 1 0 0 0 0
828	265624 25 159 159 0.000051121822 0.000051121822 1 0 0 0 0
829	265649 25 159 159 0.000051121822 0.000051121822 1 0 0 0 0
830	265674 25 159 159 0.000051121822 0.000051121822 1 0 0 0 0
831	265699 39 159 159 0.000051121822 0.000051121822 1 15022938.736417 15022938.736417 15022938.736417 2.2568868827813e+14
832	265738 39 159 159 0.000051121822 0.000051121822 1 15022938.736417 15022938.736417 15022938.736417 2.2568868827813e+14
833	265777 25 159 159 0.000051121822 0.000051121822 1 0 0 0 0
834	265802 25 159 159 0.000051121822 0.000051121822 1 0 0 0 0
835	265827 25 159 159 0.000051121822 0.000051121822 1 0 0 0 0
836	265852 25 159 159 0.000051121822 0.000051121822 1 0 0 0 0
837	265877 25 159 159 0.000051121822 0.000051121822 1 0 0 0 0
838	265902 25 159 159 0.000051121822 0.000051121822 1 0 0 0 0
839	265927 25 159 159 0.000051121822 0.000051121822 1 0 0 0 0
840	265952 25 159 159 0.000051121822 0.000051121822 1 0 0 0 0
841	265977 25 159 159 0.000051121822 0.000051121822 1 0 0 0 0
842	266002 25 159 159 0.000051121822 0.000051121822 1 0 0 0 0
843	266027 25 159 159 0.000051121822 0.000051121822 1 0 0 0 0
844	266052 25 159 159 0.000051121822 0.000051121822 1 0 0 0 0
845	266077 25 159 159 0.000051121822 0.000051121822 1 0 0 0 0
846	266102 25 159 159 0.000051121822 0.000051121822 1 0 0 0 0
847	266127 39 159 159 0.000051121822 0.000051121822 1 15022938.736417 15022938.736417 15022938.736417 2.2568868827813e+14
848	266166 39 159 159 0.000051121822 0.000051121822 1 15022938.736417 15022938.736417 15022938.736417 2.2568868827813e+14
849	266205 25 159 159 0.000051121822 0.000051121822 1 0 0 0 0
850	266230 25 159 159 0.000051121822 0.000051121822 1 0 0 0 0
851	266255 25 159 159 0.000051121822 0.000051121822 1 0 0 0 0
852	266280 25 159 159 0.000051121822 0.000051121822 1 0 0 0 0
853	266305 25 159 159 0.000051121822 0.000051121822 1 0 0 0 0
854	266330 25 159 159 0.000051121822 0.000051121822 1 0 0 0 0
855	266355 25 159 159 0.000051121822 0.000051121822 1 0 0 0 0
856	266380 25 159 159 0.000051121822 0.000051121822 1 0 0 0 0
857	266405 25 159 159 0.000051121822 0.000051121822 1 0 0 0 0
858	266430 25 159 159 0.000051121822 0.000051121822 1 0 0 0 0
859	266455 25 159 159 0.000051121822 0.000051121822 1 0 0 0 0
860	266480 25 159 159 0.000051121822 0.000051121822 1 0 0 0 0
861	266505 25 159 159 0.000051121822 0.000051121822 1 0 0 0 0
862	266530 25 159 159 0.000051121822 0.000051121822 1 0 0 0 0
863	266555 25 159 159 0.000051121822 0.000051121822 1 0 0 0 0
864	266580 25 159 159 0.000051121822 0.000051121822 1 0 0 0 0
865	266605 25 159 159 0.000051121822 0.000051121822 1 0 0 0 0
866	266630 25 159 159 0.000051121822 0.000051121822 1 0 0 0 0
867	266655 25 159 159 0.000051121822 0.000051121822 1 0 0 0 0
868	266680 25 159 159 0.000051121822 0.000051121822 1 0 0 0 0
869	266705 25 159 159 0.000051121822 0.000051121822 1 0 0 0 0
870	266730 25 159 159 0.000051121822 0.000051121822 1 0 0 0 0
871	266755 25 159 159 0.000051121822 0.000051121822 1 0 0 0 0
872	266780 25 159 159 0.000051121822 0.000051121822 1 0 0 0 0
873	266805 25 159 159 0.000051121822 0.000051121822 1 0 0 0 0
874	266830 25 159 159 0.000051121822 0.000051121822 1 0 0 0 0
875	266855 39 159 159 0.000051121822 0.000051121822 1 30045877.472833 30045877.472833 30045877.472833 9.0275475311252e+14
876	266894 39 159 159 0.000051121822 0.000051121822 1 30045877.472833 30045877.472833 30045877.472833 9.0275475311252e+14
877	266933 25 159 159 0.000051121822 0.000051121822 1 0 0 0 0
878	266958 25 159 159 0.000051121822 0.000051121822 1 0 0 0 0
879	266983 25 159 159 0.000051121822 0.000051121822 1 0 0 0 0
880	267008 25 159 159 0.000051121822 0.000051121822 1 0 0 0 0
881	267033 25 159 159 0.000051121822 0.000051121822 1 0 0 0 0
882	267058 25 159 159 0.000051121822 0.000051121822 1 0 0 0 0
883	267083 25 159 159 0.000051121822 0.000051121822 1 0 0 0 0
884	267108 25 159 159 0.000051121822 0.000051121822 1 0 0 0 0
885	267133 25 159 159 0.000051121822 0.000051121822 1 0 0 0 0
886	267158 25 159 159 0.000051121822 0.000051121822 1 0 0 0 0
887	267183 25 159 159 0.000051121822 0.000051121822 1 0 0 0 0
888	267208 25 159 159 0.000051121822 0.000051121822 1 0 0 0 0
889	267233 25 159 159 0.000051121822 0.000051121822 1 0 0 0 0
890	267258 25 159 159 0.000051121822 0.000051121822 1 0 0 0 0
891	267283 25 159 159 0.000051121822 0.000051121822 1 0 0 0 0
892	267308 25 159 159 0.000051121822 0.000051121822 1 0 0 0 0
893	267333 25 159 159 0.000051121822 0.000051121822 1 0 0 0 0
894	267358 25 159 159 0.000051121822 0.000051121822 1 0 0 0 0
895	267383 39 159 159 0.000051121822 0.000051121822 1 15648894.517101 15648894.517101 15648894.517101 2.4488789960735e+14
896	267422 25 159 159 0.000051121822 0.000051121822 1 0 0 0 0
897	267447 25 159 159 0.000051121822 0.000051121822 1 0 0 0 0
898	267472 25 159 159 0.000051121822 0.000051121822 1 0 0 0 0
899	267497 25 159 159 0.000051121822 0.000051121822 1 0 0 0 0
900	267522 25 159 159 0.000051121822 0.000051121822 1 0 0 0 0
901	267547 25 159 159 0.000051121822 0.000051121822 1 0 0 0 0
902	267572 25 159 159 0.000051121822 0.000051121822 1 0 0 0 0
903	267597 25 159 159 0.000051121822 0.000051121822 1 0 0 0 0
904	267622 25 159 159 0.000051121822 0.000051121822 1 0 0 0 0
905	267647 25 159 159 0.000051121822 0.000051121822 1 0 0 0 0
906	267672 25 159 159 0.000051121822 0.000051121822 1 0 0 0 0
907	267697 25 159 159 0.000051121822 0.000051121822 1 0 0 0 0
908	267722 25 159 159 0.000051121822 0.000051121822 1 0 0 0 0
909	267747 25 159 159 0.000051121822 0.000051121822 1 0 0 0 0
910	267772 25 159 159 0.000051121822 0.000051121822 1 0 0 0 0
911	267797 25 159 159 0.000051121822 0.000051121822 1 0 0 0 0
912	267822 25 159 159 0.000051121822 0.000051121822 1 0 0 0 0
913	267847 25 159 159 0.000051121822 0.000051121822 1 0 0 0 0
914	267872 25 159 159 0.000051121822 0.000051121822 1 0 0 0 0
915	267897 25 159 159 0.000051121822 0.000051121822 1 0 0 0 0
916	267922 25 159 159 0.000051121822 0.000051121822 1 0 0 0 0
917	267947 25 159 159 0.000051121822 0.000051121822 1 0 0 0 0
918	267972 25 159 159 0.000051121822 0.000051121822 1 0 0 0 0
919	267997 25 159 159 0.000051121822 0.000051121822 1 0 0 0 0
920	268022 25 159 159 0.000051121822 0.000051121822 1 0 0 0 0
921	268047 25 159 159 0.000051121822 0.000051121822 1 0 0 0 0
922	268072 25 159 159 0.000051121822 0.000051121822 1 0 0 0 0
923	268097 25 159 159 0.000051121822 0.000051121822 1 0 0 0 0
924	268122 25 159 159 0.000051121822 0.000051121822 1 0 0 0 0
925	268147 25 159 159 0.000051121822 0.000051121822 1 0 0 0 0
926	268172 25 159 159 0.000051121822 0.000051121822 1 0 0 0 0
927	268197 25 159 159 0.000051121822 0.000051121822 1 0 0 0 0
928	268222 25 159 159 0.000051121822 0.000051121822 1 0 0 0 0
929	268247 25 159 159 0.000051121822 0.000051121822 1 0 0 0 0
930	268272 25 159 159 0.000051121822 0.000051121822 1 0 0 0 0
931	268297 25 159 159 0.000051121822 0.000051121822 1 0 0 0 0
932	268322 25 159 159 0.000051121822 0.000051121822 1 0 0 0 0
933	268347 25 159 159 0.000051121822 0.000051121822 1 0 0 0 0
934	268372 25 159 159 0.000051121822 0.000051121822 1 0 0 0 0
935	268397 25 159 159 0.000051121822 0.000051121822 1 0 0 0 0
936	268422 25 159 159 0.000051121822 0.000051121822 1 0 0 0 0
937	268447 25 159 159 0.000051121822 0.000051121822 1 0 0 0 0
938	268472 25 159 159 0.000051121822 0.000051121822 1 0 0 0 0
939	268497 25 159 159 0.000051121822 0.000051121822 1 0 0 0 0
940	268522 39 159 159 0.000051121822 0.000051121822 1 15022938.736417 15022938.736417 15022938.736417 2.2568868827813e+14
941	268561 39 159 159 0.000051121822 0.000051121822 1 15022938.736417 15022938.736417 15022938.736417 2.2568868827813e+14
942	268600 25 159 159 0.000051121822 0.000051121822 1 0 0 0 0
943	268625 25 159 159 0.000051121822 0.000051121822 1 0 0 0 0
944	268650 25 159 159 0.000051121822 0.000051121822 1 0 0 0 0
945	268675 25 159 159 0.000051121822 0.000051121822 1 0 0 0 0
946	268700 25 159 159 0.000051121822 0.000051121822 1 0 0 0 0
947	268725 25 159 159 0.000051121822 0.000051121822 1 0 0 0 0
948	268750 25 159 159 0.000051121822 0.000051121822 1 0 0 0 0
949	268775 25 159 159 0.000051121822 0.000051121822 1 0 0 0 0
950	268800 25 159 159 0.000051121822 0.000051121822 1 0 0 0 0
951	268825 25 159 159 0.000051121822 0.000051121822 1 0 0 0 0
952	268850 25 159 159 0.000051121822 0.000051121822 1 0 0 0 0
953	268875 25 159 159 0.000051121822 0.000051121822 1 0 0 0 0
954	268900 25 159 159 0.000051121822 0.000051121822 1 0 0 0 0
955	268925 25 159 159 0.000051121822 0.000051121822 1 0 0 0 0
956	268950 25 159 159 0.000051121822 0.000051121822 1 0 0 0 0
957	268975 25 159 159 0.000051121822 0.000051121822 1 0 0 0 0
958	269000 25 159 159 0.000051121822 0.000051121822 1 0 0 0 0
959	269025 25 159 159 0.000051121822 0.000051121822 1 0 0 0 0
960	269050 25 159 159 0.000051121822 0.000051121822 1 0 0 0 0
961	269075 25 159 159 0.000051121822 0.000051121822 1 0 0 0 0
962	269100 25 159 159 0.000051121822 0.000051121822 1 0 0 0 0
963	269125 25 159 159 0.000051121822 0.000051121822 1 0 0 0 0
964	269150 25 159 159 0.000051121822 0.000051121822 1 0 0 0 0
965	269175 25 159 159 0.000051121822 0.000051121822 1 0 0 0 0
966	269200 25 159 159 0.000051121822 0.000051121822 1 0 0 0 0
967	269225 25 159 159 0.000051121822 0.000051121822 1 0 0 0 0
968	269250 25 159 159 0.000051121822 0.000051121822 1 0 0 0 0
969	269275 25 159 159 0.000051121822 0.000051121822 1 0 0 0 0
970	269300 25 159 159 0.000051121822 0.000051121822 1 0 0 0 0
971	269325 25 159 159 0.000051121822 0.000051121822 1 0 0 0 0
972	269350 25 159 159 0.000051121822 0.000051121822 1 0 0 0 0
973	269375 25 159 159 0.000051121822 0.000051121822 1 0 0 0 0
974	269400 25 159 159 0.000051121822 0.000051121822 1 0 0 0 0
975	269425 25 159 159 0.000051121822 0.000051121822 1 0 0 0 0
976	269450 25 159 159 0.000051121822 0.000051121822 1 0 0 0 0
977	269475 25 159 159 0.000051121822 0.000051121822 1 0 0 0 0
978	269500 25 159 159 0.000051121822 0.000051121822 1 0 0 0 0
979	269525 25 159 159 0.000051121822 0.000051121822 1 0 0 0 0
980	269550 25 159 159 0.000051121822 0.000051121822 1 0 0 0 0
981	269575 25 159 159 0.000051121822 0.000051121822 1 0 0 0 0
982	269600 25 159 159 0.000051121822 0.000051121822 1 0 0 0 0
983	269625 25 159 159 0.000051121822 0.000051121822 1 0 0 0 0
984	269650 25 159 159 0.000051121822 0.000051121822 1 0 0 0 0
985	269675 39 159 159 0.000051121822 0.000051121822 1 15022938.736417 15022938.736417 15022938.736417 2.2568868827813e+14
986	269714 39 159 159 0.000051121822 0.000051121822 1 15022938.736417 15022938.736417 15022938.736417 2.2568868827813e+14
987	269753 25 159 159 0.000051121822 0.000051121822 1 0 0 0 0
988	269778 25 159 159 0.000051121822 0.000051121822 1 0 0 0 0
989	269803 25 159 159 0.000051121822 0.000051121822 1 0 0 0 0
990	269828 25 159 159 0.000051121822 0.000051121822 1 0 0 0 0
991	269853 25 159 159 0.000051121822 0.000051121822 1 0 0 0 0
992	269878 25 159 159 0.000051121822 0.000051121822 1 0 0 0 0
993	269903 25 159 159 0.000051121822 0.000051121822 1 0 0 0 0
994	269928 25 159 159 0.000051121822 0.000051121822 1 0 0 0 0
995	269953 25 159 159 0.000051121822 0.000051121822 1 0 0 0 0
996	269978 25 159 159 0.000051121822 0.000051121822 1 0 0 0 0
997	270003 25 159 159 0.000051121822 0.000051121822 1 0 0 0 0
998	270028 25 159 159 0.000051121822 0.000051121822 1 0 0 0 0
999	270053 25 159 159 0.000051121822 0.000051121822 1 0 0 0 0
1000	270078 26 159 159 0.000051121822 0.000051121822 1 0 0 0 0
1001	270104 26 159 159 0.000051121822 0.000051121822 1 0 0 0 0
1002	270130 26 159 159 0.000051121822 0.000051121822 1 0 0 0 0
1003	270156 26 159 159 0.000051121822 0.000051121822 1 0 0 0 0
1004	270182 26 159 159 0.000051121822 0.000051121822 1 0 0 0 0
1005	270208 26 159 159 0.000051121822 0.000051121822 1 0 0 0 0
1006	270234 26 159 159 0.000051121822 0.000051121822 1 0 0 0 0
1007	270260 26 159 159 0.000051121822 0.000051121822 1 0 0 0 0
1008	270286 26 159 159 0.000051121822 0.000051121822 1 0 0 0 0
1009	270312 26 159 159 0.000051121822 0.000051121822 1 0 0 0 0
1010	270338 40 159 159 0.000051121822 0.000051121822 1 15022938.736417 15022938.736417 15022938.736417 2.2568868827813e+14
1011	270378 40 159 159 0.000051121822 0.000051121822 1 15022938.736417 15022938.736417 15022938.736417 2.2568868827813e+14
1012	270418 26 159 159 0.000051121822 0.000051121822 1 0 0 0 0
1013	270444 26 159 159 0.000051121822 0.000051121822 1 0 0 0 0
1014	270470 26 159 159 0.000051121822 0.000051121822 1 0 0 0 0
1015	270496 26 159 159 0.000051121822 0.000051121822 1 0 0 0 0
1016	270522 26 159 159 0.000051121822 0.000051121822 1 0 0 0 0
1017	270548 26 159 159 0.000051121822 0.000051121822 1 0 0 0 0
1018	270574 26 159 159 0.000051121822 0.000051121822 1 0 0 0 0
1019	270600 26 159 159 0.000051121822 0.000051121822 1 0 0 0 0
1020	270626 26 159 159 0.000051121822 0.000051121822 1 0 0 0 0
1021	270652 26 159 159 0.000051121822 0.000051121822 1 0 0 0 0
1022	270678 26 159 159 0.000051121822 0.000051121822 1 0 0 0 0
1023	270704 26 159 159 0.000051121822 0.000051121822 1 0 0 0 0
1024	270730 26 159 159 0.000051121822 0.000051121822 1 0 0 0 0
1025	270756 26 159 159 0.000051121822 0.000051121822 1 0 0 0 0
1026	270782 26 159 159 0.000051121822 0.000051121822 1 0 0 0 0
1027	270808 26 159 159 0.000051121822 0.000051121822 1 0 0 0 0
1028	270834 26 159 159 0.000051121822 0.000051121822 1 0 0 0 0
1029	270860 26 159 159 0.000051121822 0.000051121822 1 0 0 0 0
1030	270886 26 159 159 0.000051121822 0.000051121822 1 0 0 0 0
1031	270912 26 159 159 0.000051121822 0.000051121822 1 0 0 0 0
1032	270938 26 159 159 0.000051121822 0.000051121822 1 0 0 0 0
1033	270964 26 159 159 0.000051121822 0.000051121822 1 0 0 0 0
1034	270990 26 159 159 0.000051121822 0.000051121822 1 0 0 0 0
1035	271016 26 159 159 0.000051121822 0.000051121822 1 0 0 0 0
1036	271042 26 159 159 0.000051121822 0.000051121822 1 0 0 0 0
1037	271068 26 159 159 0.000051121822 0.000051121822 1 0 0 0 0
1038	271094 26 159 159 0.000051121822 0.000051121822 1 0 0 0 0
1039	271120 26 159 159 0.000051121822 0.000051121822 1 0 0 0 0
1040	271146 26 159 159 0.000051121822 0.000051121822 1 0 0 0 0
1041	271172 26 159 159 0.000051121822 0.000051121822 1 0 0 0 0
1042	271198 26 159 159 0.000051121822 0.000051121822 1 0 0 0 0
1043	271224 26 159 159 0.000051121822 0.000051121822 1 0 0 0 0
1044	271250 26 159 159 0.000051121822 0.000051121822 1 0 0 0 0
1045	271276 26 159 159 0.000051121822 0.000051121822 1 0 0 0 0
1046	271302 26 159 159 0.000051121822 0.000051121822 1 0 0 0 0
1047	271328 26 159 159 0.000051121822 0.000051121822 1 0 0 0 0
1048	271354 26 159 159 0.000051121822 0.000051121822 1 0 0 0 0
1049	271380 26 159 159 0.000051121822 0.000051121822 1 0 0 0 0
1050	271406 26 159 159 0.000051121822 0.000051121822 1 0 0 0 0
1051	271432 26 159 159 0.000051121822 0.000051121822 1 0 0 0 0
1052	271458 26 159 159 0.000051121822 0.000051121822 1 0 0 0 0
1053	271484 26 159 159 0.000051121822 0.000051121822 1 0 0 0 0
1054	271510 26 159 159 0.000051121822 0.000051121822 1 0 0 0 0
1055	271536 40 159 159 0.000051121822 0.000051121822 1 15022938.736417 15022938.736417 15022938.736417 2.2568868827813e+14
1056	271576 40 159 159 0.000051121822 0.000051121822 1 15022938.736417 15022938.736417 15022938.736417 2.2568868827813e+14
1057	271616 26 159 159 0.000051121822 0.000051121822 1 0 0 0 0
1058	271642 26 159 159 0.000051121822 0.000051121822 1 0 0 0 0
1059	271668 26 159 159 0.000051121822 0.000051121822 1 0 0 0 0
1060	271694 26 159 159 0.000051121822 0.000051121822 1 0 0 0 0
1061	271720 26 159 159 0.000051121822 0.000051121822 1 0 0 0 0
1062	271746 26 159 159 0.000051121822 0.000051121822 1 0 0 0 0
1063	271772 26 159 159 0.000051121822 0.000051121822 1 0 0 0 0
1064	271798 26 159 159 0.000051121822 0.000051121822 1 0 0 0 0
1065	271824 26 159 159 0.000051121822 0.000051121822 1 0 0 0 0
1066	271850 26 159 159 0.000051121822 0.000051121822 1 0 0 0 0
1067	271876 26 159 159 0.000051121822 0.000051121822 1 0 0 0 0
1068	271902 26 159 159 0.000051121822 0.000051121822 1 0 0 0 0
1069	271928 26 159 159 0.000051121822 0.000051121822 1 0 0 0 0
1070	271954 26 159 159 0.000051121822 0.000051121822 1 0 0 0 0
1071	271980 26 159 159 0.000051121822 0.000051121822 1 0 0 0 0
1072	272006 26 159 159 0.000051121822 0.000051121822 1 0 0 0 0
1073	272032 26 159 159 0.000051121822 0.000051121822 1 0 0 0 0
1074	272058 26 159 159 0.000051121822 0.000051121822 1 0 0 0 0
1075	272084 26 159 159 0.000051121822 0.000051121822 1 0 0 0 0
1076	272110 26 159 159 0.000051121822 0.000051121822 1 0 0 0 0
1077	272136 26 159 159 0.000051121822 0.000051121822 1 0 0 0 0
1078	272162 26 159 159 0.000051121822 0.000051121822 1 0 0 0 0
1079	272188 26 159 159 0.000051121822 0.000051121822 1 0 0 0 0
1080	272214 26 159 159 0.000051121822 0.000051121822 1 0 0 0 0
1081	272240 26 159 159 0.000051121822 0.000051121822 1 0 0 0 0
1082	272266 26 159 159 0.000051121822 0.000051121822 1 0 0 0 0
1083	272292 26 159 159 0.000051121822 0.000051121822 1 0 0 0 0
1084	272318 26 159 159 0.000051121822 0.000051121822 1 0 0 0 0
1085	272344 26 159 159 0.000051121822 0.000051121822 1 0 0 0 0
1086	272370 26 159 159 0.000051121822 0.000051121822 1 0 0 0 0
1087	272396 26 159 159 0.000051121822 0.000051121822 1 0 0 0 0
1088	272422 26 159 159 0.000051121822 0.000051121822 1 0 0 0 0
1089	272448 26 159 159 0.000051121822 0.000051121822 1 0 0 0 0
1090	272474 26 159 159 0.000051121822 0.000051121822 1 0 0 0 0
1091	272500 26 159 159 0.000051121822 0.000051121822 1 0 0 0 0
1092	272526 26 159 159 0.000051121822 0.000051121822 1 0 0 0 0
1093	272552 26 159 159 0.000051121822 0.000051121822 1 0 0 0 0
1094	272578 26 159 159 0.000051121822 0.000051121822 1 0 0 0 0
1095	272604 26 159 159 0.000051121822 0.000051121822 1 0 0 0 0
1096	272630 26 159 159 0.000051121822 0.000051121822 1 0 0 0 0
1097	272656 26 159 159 0.000051121822 0.000051121822 1 0 0 0 0
1098	272682 26 159 159 0.000051121822 0.000051121822 1 0 0 0 0
1099	272708 26 159 159 0.000051121822 0.000051121822 1 0 0 0 0
1100	272734 26 159 159 0.000051121822 0.000051121822 1 0 0 0 0
1101	272760 26 159 159 0.000051121822 0.000051121822 1 0 0 0 0

